CaseCStar/case.raw
0,100.0,33,0,0,60.0
GRID OPTIMIZATION COMPETITION CHALLENGE 2
INPUT DATA FILES ARE RAW JSON CON
1,'DENVER CIT~1',115.0,1,1,1,1,1.00,0.0,1.1,0.9,1.1,0.9
2,'DENVER CIT~3',115.0,1,1,1,1,1.00,0.0,1.1,0.9,1.1,0.9
3,'MONAHANS 1 1',115.0,1,1,1,1,1.00,0.0,1.1,0.9,1.1,0.9
4,'MORTON 1',115.0,1,1,1,1,1.00,0.0,1.1,0.9,1.1,0.9
5,'MORTON 2',115.0,1,1,1,1,1.00,0.0,1.1,0.9,1.1,0.9
6,'FORT STOCK~1',115.0,1,1,1,1,1.00,0.0,1.1,0.9,1.1,0.9
7,'FORT STOCK~3',115.0,1,1,1,1,1.00,0.0,1.1,0.9,1.1,0.9
8,'MULESHOE 1',115.0,1,1,1,1,1.00,0.0,1.1,0.9,1.1,0.9
9,'FRIONA 1',115.0,1,1,1,1,1.00,0.0,1.1,0.9,1.1,0.9
10,'SEMINOLE 1 1',115.0,1,1,1,1,1.00,0.0,1.1,0.9,1.1,0.9
11,'ANDREWS 1 1',115.0,1,1,1,1,1.00,0.0,1.1,0.9,1.1,0.9
12,'ANDREWS 2 1',230.0,1,1,1,1,1.00,0.0,1.1,0.9,1.1,0.9
13,'ANDREWS 2 2',115.0,1,1,1,1,1.00,0.0,1.1,0.9,1.1,0.9
14,'ANDREWS 2 3',230.0,1,1,1,1,1.00,0.0,1.1,0.9,1.1,0.9
15,'ANDREWS 2 5',230.0,1,1,1,1,1.00,0.0,1.1,0.9,1.1,0.9
16,'DALHART 1',230.0,1,1,1,1,1.00,0.0,1.1,0.9,1.1,0.9
17,'DALHART 2',115.0,1,1,1,1,1.00,0.0,1.1,0.9,1.1,0.9
18,'DALHART 3',230.0,1,1,1,1,1.00,0.0,1.1,0.9,1.1,0.9
19,'DALHART 5',230.0,1,1,1,1,1.00,0.0,1.1,0.9,1.1,0.9
20,'HEREFORD 1',230.0,1,1,1,1,1.00,0.0,1.1,0.9,1.1,0.9
21,'HEREFORD 2',115.0,1,1,1,1,1.00,0.0,1.1,0.9,1.1,0.9
22,'HEREFORD 3',230.0,1,1,1,1,1.00,0.0,1.1,0.9,1.1,0.9
23,'HEREFORD 5',230.0,1,1,1,1,1.00,0.0,1.1,0.9,1.1,0.9
24,'ODESSA 1 1',115.0,1,1,1,1,1.00,0.0,1.1,0.9,1.1,0.9
25,'ODESSA 2 1',115.0,1,1,1,1,1.00,0.0,1.1,0.9,1.1,0.9
26,'CRANE 1 1',115.0,1,1,1,1,1.00,0.0,1.1,0.9,1.1,0.9
27,'ODESSA 3 1',500.0,1,1,1,1,1.00,0.0,1.1,0.9,1.1,0.9
28,'ODESSA 3 2',230.0,1,1,1,1,1.00,0.0,1.1,0.9,1.1,0.9
29,'ODESSA 3 3',115.0,1,1,1,1,1.00,0.0,1.1,0.9,1.1,0.9
30,'ODESSA 3 4',500.0,1,1,1,1,1.00,0.0,1.1,0.9,1.1,0.9
31,'ODESSA 3 6',230.0,1,1,1,1,1.00,0.0,1.1,0.9,1.1,0.9
32,'ODESSA 4 1',115.0,1,1,1,1,1.00,0.0,1.1,0.9,1.1,0.9
33,'ODESSA 4 2',115.0,1,1,1,1,1.00,0.0,1.1,0.9,1.1,0.9
34,'DIMMITT 1',115.0,1,1,1,1,1.00,0.0,1.1,0.9,1.1,0.9
35,'LEVELLAND ~1',115.0,1,1,1,1,1.00,0.0,1.1,0.9,1.1,0.9
36,'LEVELLAND ~3',115.0,1,1,1,1,1.00,0.0,1.1,0.9,1.1,0.9
37,'LEVELLAND ~5',230.0,1,1,1,1,1.00,0.0,1.1,0.9,1.1,0.9
38,'LEVELLAND ~6',115.0,1,1,1,1,1.00,0.0,1.1,0.9,1.1,0.9
39,'LEVELLAND ~7',230.0,1,1,1,1,1.00,0.0,1.1,0.9,1.1,0.9
40,'ODESSA 5 1',115.0,1,1,1,1,1.00,0.0,1.1,0.9,1.1,0.9
41,'ODESSA 6 1',115.0,1,1,1,1,1.00,0.0,1.1,0.9,1.1,0.9
42,'ODESSA 7 1',115.0,1,1,1,1,1.00,0.0,1.1,0.9,1.1,0.9
43,'ODESSA 8 1',115.0,1,1,1,1,1.00,0.0,1.1,0.9,1.1,0.9
44,'ODESSA 9 1',115.0,1,1,1,1,1.00,0.0,1.1,0.9,1.1,0.9
45,'ODESSA 10 1',115.0,1,1,1,1,1.00,0.0,1.1,0.9,1.1,0.9
46,'LITTLEFIEL~1',115.0,1,1,1,1,1.00,0.0,1.1,0.9,1.1,0.9
47,'BROWNFIELD~1',115.0,1,1,1,1,1.00,0.0,1.1,0.9,1.1,0.9
48,'BROWNFIELD~3',115.0,1,1,1,1,1.00,0.0,1.1,0.9,1.1,0.9
49,'SANDERSON 1',115.0,1,1,1,1,1.00,0.0,1.1,0.9,1.1,0.9
50,'SANDERSON 2',115.0,1,1,1,1,1.00,0.0,1.1,0.9,1.1,0.9
51,'MIDLAND 1 1',115.0,1,1,1,1,1.00,0.0,1.1,0.9,1.1,0.9
52,'MIDLAND 2 1',115.0,1,1,1,1,1.00,0.0,1.1,0.9,1.1,0.9
53,'MIDLAND 2 2',115.0,1,1,1,1,1.00,0.0,1.1,0.9,1.1,0.9
54,'MIDLAND 3 1',115.0,1,1,1,1,1.00,0.0,1.1,0.9,1.1,0.9
55,'MIDLAND 3 2',115.0,1,1,1,1,1.00,0.0,1.1,0.9,1.1,0.9
56,'OLTON 1',115.0,1,1,1,1,1.00,0.0,1.1,0.9,1.1,0.9
57,'OLTON 2',115.0,1,1,1,1,1.00,0.0,1.1,0.9,1.1,0.9
58,'MIDLAND 4 1',115.0,1,1,1,1,1.00,0.0,1.1,0.9,1.1,0.9
59,'MIDLAND 5 1',115.0,1,1,1,1,1.00,0.0,1.1,0.9,1.1,0.9
60,'MIDLAND 6 1',115.0,1,1,1,1,1.00,0.0,1.1,0.9,1.1,0.9
61,'MIDLAND 6 2',115.0,1,1,1,1,1.00,0.0,1.1,0.9,1.1,0.9
62,'LUBBOCK 1 1',115.0,1,1,1,1,1.00,0.0,1.1,0.9,1.1,0.9
63,'MIDLAND 7 1',230.0,1,1,1,1,1.00,0.0,1.1,0.9,1.1,0.9
64,'MIDLAND 7 2',115.0,1,1,1,1,1.00,0.0,1.1,0.9,1.1,0.9
65,'MIDLAND 7 3',230.0,1,1,1,1,1.00,0.0,1.1,0.9,1.1,0.9
66,'MIDLAND 7 5',230.0,1,1,1,1,1.00,0.0,1.1,0.9,1.1,0.9
67,'MIDLAND 8 1',115.0,1,1,1,1,1.00,0.0,1.1,0.9,1.1,0.9
68,'DUMAS 1 1',115.0,1,1,1,1,1.00,0.0,1.1,0.9,1.1,0.9
69,'DUMAS 1 2',115.0,1,1,1,1,1.00,0.0,1.1,0.9,1.1,0.9
70,'DUMAS 2 1',115.0,1,1,1,1,1.00,0.0,1.1,0.9,1.1,0.9
71,'LAMESA 1 1',115.0,1,1,1,1,1.00,0.0,1.1,0.9,1.1,0.9
72,'LAMESA 2 1',230.0,1,1,1,1,1.00,0.0,1.1,0.9,1.1,0.9
73,'LAMESA 2 2',115.0,1,1,1,1,1.00,0.0,1.1,0.9,1.1,0.9
74,'LAMESA 2 3',230.0,1,1,1,1,1.00,0.0,1.1,0.9,1.1,0.9
75,'LAMESA 2 5',230.0,1,1,1,1,1.00,0.0,1.1,0.9,1.1,0.9
76,'MIDLAND 9 1',115.0,1,1,1,1,1.00,0.0,1.1,0.9,1.1,0.9
77,'MIDLAND 10 1',115.0,1,1,1,1,1.00,0.0,1.1,0.9,1.1,0.9
78,'STRATFORD ~1',115.0,1,1,1,1,1.00,0.0,1.1,0.9,1.1,0.9
79,'LUBBOCK 2 1',230.0,1,1,1,1,1.00,0.0,1.1,0.9,1.1,0.9
80,'LUBBOCK 2 2',115.0,1,1,1,1,1.00,0.0,1.1,0.9,1.1,0.9
81,'LUBBOCK 2 3',230.0,1,1,1,1,1.00,0.0,1.1,0.9,1.1,0.9
82,'LUBBOCK 2 5',230.0,1,1,1,1,1.00,0.0,1.1,0.9,1.1,0.9
83,'LUBBOCK 3 1',115.0,1,1,1,1,1.00,0.0,1.1,0.9,1.1,0.9
84,'LUBBOCK 3 2',115.0,1,1,1,1,1.00,0.0,1.1,0.9,1.1,0.9
85,'LUBBOCK 3 4',115.0,1,1,1,1,1.00,0.0,1.1,0.9,1.1,0.9
86,'IRAAN 1 1',115.0,1,1,1,1,1.00,0.0,1.1,0.9,1.1,0.9
87,'LUBBOCK 4 1',115.0,1,1,1,1,1.00,0.0,1.1,0.9,1.1,0.9
88,'LUBBOCK 4 2',115.0,1,1,1,1,1.00,0.0,1.1,0.9,1.1,0.9
89,'LUBBOCK 5 1',115.0,1,1,1,1,1.00,0.0,1.1,0.9,1.1,0.9
90,'LUBBOCK 5 2',115.0,1,1,1,1,1.00,0.0,1.1,0.9,1.1,0.9
91,'LUBBOCK 6 1',500.0,1,1,1,1,1.00,0.0,1.1,0.9,1.1,0.9
92,'LUBBOCK 6 2',230.0,1,1,1,1,1.00,0.0,1.1,0.9,1.1,0.9
93,'LUBBOCK 6 3',115.0,1,1,1,1,1.00,0.0,1.1,0.9,1.1,0.9
94,'LUBBOCK 6 4',500.0,1,1,1,1,1.00,0.0,1.1,0.9,1.1,0.9
95,'LUBBOCK 6 6',500.0,1,1,1,1,1.00,0.0,1.1,0.9,1.1,0.9
96,'HALE CENTE~1',115.0,1,1,1,1,1.00,0.0,1.1,0.9,1.1,0.9
97,'CANYON 1 1',115.0,1,1,1,1,1.00,0.0,1.1,0.9,1.1,0.9
98,'CANYON 2 1',115.0,1,1,1,1,1.00,0.0,1.1,0.9,1.1,0.9
99,'CANYON 3 1',115.0,1,1,1,1,1.00,0.0,1.1,0.9,1.1,0.9
100,'CANYON 3 2',115.0,1,1,1,1,1.00,0.0,1.1,0.9,1.1,0.9
101,'LUBBOCK 7 1',115.0,1,1,1,1,1.00,0.0,1.1,0.9,1.1,0.9
102,'LUBBOCK 8 1',115.0,1,1,1,1,1.00,0.0,1.1,0.9,1.1,0.9
103,'LUBBOCK 8 2',115.0,1,1,1,1,1.00,0.0,1.1,0.9,1.1,0.9
104,'AMARILLO 1 1',115.0,1,1,1,1,1.00,0.0,1.1,0.9,1.1,0.9
105,'AMARILLO 2 1',115.0,1,1,1,1,1.00,0.0,1.1,0.9,1.1,0.9
106,'AMARILLO 2 2',115.0,1,1,1,1,1.00,0.0,1.1,0.9,1.1,0.9
107,'AMARILLO 3 1',230.0,1,1,1,1,1.00,0.0,1.1,0.9,1.1,0.9
108,'AMARILLO 3 2',115.0,1,1,1,1,1.00,0.0,1.1,0.9,1.1,0.9
109,'AMARILLO 3 3',230.0,1,1,1,1,1.00,0.0,1.1,0.9,1.1,0.9
110,'AMARILLO 3 5',230.0,1,1,1,1,1.00,0.0,1.1,0.9,1.1,0.9
111,'AMARILLO 4 1',115.0,1,1,1,1,1.00,0.0,1.1,0.9,1.1,0.9
112,'AMARILLO 4 2',115.0,1,1,1,1,1.00,0.0,1.1,0.9,1.1,0.9
113,'AMARILLO 5 1',115.0,1,1,1,1,1.00,0.0,1.1,0.9,1.1,0.9
114,'LUBBOCK 9 1',115.0,1,1,1,1,1.00,0.0,1.1,0.9,1.1,0.9
115,'LUBBOCK 10 1',230.0,1,1,1,1,1.00,0.0,1.1,0.9,1.1,0.9
116,'LUBBOCK 10 2',115.0,1,1,1,1,1.00,0.0,1.1,0.9,1.1,0.9
117,'LUBBOCK 10 3',230.0,1,1,1,1,1.00,0.0,1.1,0.9,1.1,0.9
118,'LUBBOCK 10 5',230.0,1,1,1,1,1.00,0.0,1.1,0.9,1.1,0.9
119,'LUBBOCK 11 1',115.0,1,1,1,1,1.00,0.0,1.1,0.9,1.1,0.9
120,'LUBBOCK 12 1',115.0,1,1,1,1,1.00,0.0,1.1,0.9,1.1,0.9
121,'LUBBOCK 12 2',115.0,1,1,1,1,1.00,0.0,1.1,0.9,1.1,0.9
122,'STANTON 1',115.0,1,1,1,1,1.00,0.0,1.1,0.9,1.1,0.9
123,'TAHOKA 1 1',115.0,1,1,1,1,1.00,0.0,1.1,0.9,1.1,0.9
124,'AMARILLO 6 1',115.0,1,1,1,1,1.00,0.0,1.1,0.9,1.1,0.9
125,'AMARILLO 7 1',115.0,1,1,1,1,1.00,0.0,1.1,0.9,1.1,0.9
126,'LUBBOCK 13 1',115.0,1,1,1,1,1.00,0.0,1.1,0.9,1.1,0.9
127,'LUBBOCK 14 1',115.0,1,1,1,1,1.00,0.0,1.1,0.9,1.1,0.9
128,'LUBBOCK 14 2',115.0,1,1,1,1,1.00,0.0,1.1,0.9,1.1,0.9
129,'SUNRAY 1 1',115.0,1,1,1,1,1.00,0.0,1.1,0.9,1.1,0.9
130,'AMARILLO 8 1',230.0,1,1,1,1,1.00,0.0,1.1,0.9,1.1,0.9
131,'AMARILLO 8 2',115.0,1,1,1,1,1.00,0.0,1.1,0.9,1.1,0.9
132,'AMARILLO 8 3',230.0,1,1,1,1,1.00,0.0,1.1,0.9,1.1,0.9
133,'PLAINVIEW ~1',230.0,1,1,1,1,1.00,0.0,1.1,0.9,1.1,0.9
134,'PLAINVIEW ~2',115.0,1,1,1,1,1.00,0.0,1.1,0.9,1.1,0.9
135,'PLAINVIEW ~3',230.0,1,1,1,1,1.00,0.0,1.1,0.9,1.1,0.9
136,'PLAINVIEW ~4',115.0,1,1,1,1,1.00,0.0,1.1,0.9,1.1,0.9
137,'PLAINVIEW ~5',115.0,1,1,1,1,1.00,0.0,1.1,0.9,1.1,0.9
138,'PLAINVIEW ~6',115.0,1,1,1,1,1.00,0.0,1.1,0.9,1.1,0.9
139,'TULIA 1',115.0,1,1,1,1,1.00,0.0,1.1,0.9,1.1,0.9
140,'AMARILLO 9 1',115.0,1,1,1,1,1.00,0.0,1.1,0.9,1.1,0.9
141,'SLATON 1',115.0,1,1,1,1,1.00,0.0,1.1,0.9,1.1,0.9
142,'BIG LAKE 1',115.0,1,1,1,1,1.00,0.0,1.1,0.9,1.1,0.9
143,'BIG SPRING~1',115.0,1,1,1,1,1.00,0.0,1.1,0.9,1.1,0.9
144,'BIG SPRING~2',115.0,1,1,1,1,1.00,0.0,1.1,0.9,1.1,0.9
145,'BIG SPRING~4',115.0,1,1,1,1,1.00,0.0,1.1,0.9,1.1,0.9
146,'BIG SPRING~5',115.0,1,1,1,1,1.00,0.0,1.1,0.9,1.1,0.9
147,'RALLS 1',115.0,1,1,1,1,1.00,0.0,1.1,0.9,1.1,0.9
148,'BORGER 1 1',115.0,1,1,1,1,1.00,0.0,1.1,0.9,1.1,0.9
149,'BORGER 1 2',115.0,1,1,1,1,1.00,0.0,1.1,0.9,1.1,0.9
150,'CLAUDE 1',115.0,1,1,1,1,1.00,0.0,1.1,0.9,1.1,0.9
151,'LOCKNEY 1',115.0,1,1,1,1,1.00,0.0,1.1,0.9,1.1,0.9
152,'POST 1',115.0,1,1,1,1,1.00,0.0,1.1,0.9,1.1,0.9
153,'OZONA 1',115.0,1,1,1,1,1.00,0.0,1.1,0.9,1.1,0.9
154,'FLOYDADA 1 1',115.0,1,1,1,1,1.00,0.0,1.1,0.9,1.1,0.9
155,'SPEARMAN 1 1',115.0,1,1,1,1,1.00,0.0,1.1,0.9,1.1,0.9
156,'SPEARMAN 1 2',115.0,1,1,1,1,1.00,0.0,1.1,0.9,1.1,0.9
157,'CLARENDON ~1',115.0,1,1,1,1,1.00,0.0,1.1,0.9,1.1,0.9
158,'SPUR 1',115.0,1,1,1,1,1.00,0.0,1.1,0.9,1.1,0.9
159,'PAMPA 1 1',115.0,1,1,1,1,1.00,0.0,1.1,0.9,1.1,0.9
160,'PAMPA 2 1',230.0,1,1,1,1,1.00,0.0,1.1,0.9,1.1,0.9
161,'PAMPA 2 2',115.0,1,1,1,1,1.00,0.0,1.1,0.9,1.1,0.9
162,'PAMPA 2 3',230.0,1,1,1,1,1.00,0.0,1.1,0.9,1.1,0.9
163,'PAMPA 2 5',230.0,1,1,1,1,1.00,0.0,1.1,0.9,1.1,0.9
164,'PAMPA 3 1',115.0,1,1,1,1,1.00,0.0,1.1,0.9,1.1,0.9
165,'DEL RIO 1 1',115.0,1,1,1,1,1.00,0.0,1.1,0.9,1.1,0.9
166,'DEL RIO 1 2',115.0,1,1,1,1,1.00,0.0,1.1,0.9,1.1,0.9
167,'DEL RIO 1 4',115.0,1,1,1,1,1.00,0.0,1.1,0.9,1.1,0.9
168,'DEL RIO 2 1',115.0,1,1,1,1,1.00,0.0,1.1,0.9,1.1,0.9
169,'DEL RIO 3 1',115.0,1,1,1,1,1.00,0.0,1.1,0.9,1.1,0.9
170,'DEL RIO 4 1',115.0,1,1,1,1,1.00,0.0,1.1,0.9,1.1,0.9
171,'DEL RIO 4 2',115.0,1,1,1,1,1.00,0.0,1.1,0.9,1.1,0.9
172,'DEL RIO 5 1',230.0,1,1,1,1,1.00,0.0,1.1,0.9,1.1,0.9
173,'DEL RIO 5 2',115.0,1,1,1,1,1.00,0.0,1.1,0.9,1.1,0.9
174,'DEL RIO 5 3',230.0,1,1,1,1,1.00,0.0,1.1,0.9,1.1,0.9
175,'SNYDER 1 1',115.0,1,1,1,1,1.00,0.0,1.1,0.9,1.1,0.9
176,'SNYDER 2 1',115.0,1,1,1,1,1.00,0.0,1.1,0.9,1.1,0.9
177,'SNYDER 2 2',115.0,1,1,1,1,1.00,0.0,1.1,0.9,1.1,0.9
178,'PERRYTON 1',230.0,1,1,1,1,1.00,0.0,1.1,0.9,1.1,0.9
179,'PERRYTON 2',115.0,1,1,1,1,1.00,0.0,1.1,0.9,1.1,0.9
180,'PERRYTON 3',230.0,1,1,1,1,1.00,0.0,1.1,0.9,1.1,0.9
181,'PERRYTON 5',230.0,1,1,1,1,1.00,0.0,1.1,0.9,1.1,0.9
182,'ELDORADO 1',115.0,1,1,1,1,1.00,0.0,1.1,0.9,1.1,0.9
183,'ELDORADO 2',115.0,1,1,1,1,1.00,0.0,1.1,0.9,1.1,0.9
184,'SONORA 1',115.0,1,1,1,1,1.00,0.0,1.1,0.9,1.1,0.9
185,'SAN ANGELO~1',115.0,1,1,1,1,1.00,0.0,1.1,0.9,1.1,0.9
186,'SAN ANGELO~4',115.0,1,1,1,1,1.00,0.0,1.1,0.9,1.1,0.9
187,'SAN ANGELO~5',115.0,1,1,1,1,1.00,0.0,1.1,0.9,1.1,0.9
188,'SAN ANGELO~6',115.0,1,1,1,1,1.00,0.0,1.1,0.9,1.1,0.9
189,'MEMPHIS 1 1',115.0,1,1,1,1,1.00,0.0,1.1,0.9,1.1,0.9
190,'BOOKER 1',115.0,1,1,1,1,1.00,0.0,1.1,0.9,1.1,0.9
191,'ROTAN 1',115.0,1,1,1,1,1.00,0.0,1.1,0.9,1.1,0.9
192,'SAN ANGELO~7',115.0,1,1,1,1,1.00,0.0,1.1,0.9,1.1,0.9
193,'SAN ANGELO~8',115.0,1,1,1,1,1.00,0.0,1.1,0.9,1.1,0.9
194,'SAN ANGEL~10',230.0,1,1,1,1,1.00,0.0,1.1,0.9,1.1,0.9
195,'SAN ANGEL~12',115.0,1,1,1,1,1.00,0.0,1.1,0.9,1.1,0.9
196,'SAN ANGEL~13',230.0,1,1,1,1,1.00,0.0,1.1,0.9,1.1,0.9
197,'SAN ANGEL~14',115.0,1,1,1,1,1.00,0.0,1.1,0.9,1.1,0.9
198,'SAN ANGEL~15',230.0,1,1,1,1,1.00,0.0,1.1,0.9,1.1,0.9
199,'SAN ANGEL~16',115.0,1,1,1,1,1.00,0.0,1.1,0.9,1.1,0.9
200,'SAN ANGEL~17',230.0,1,1,1,1,1.00,0.0,1.1,0.9,1.1,0.9
...
0 / END OF BUS DATA BEGIN LOAD DATA
2,'1',1,1,1,5.38,2.615,0.0,0.0,0.0,0.0,1,1,0
3,'1',1,1,1,6.73,0.627,0.0,0.0,0.0,0.0,1,1,0
4,'1',1,1,1,4.68,1.124,0.0,0.0,0.0,0.0,1,1,0
6,'1',1,1,1,4.69,2.15,0.0,0.0,0.0,0.0,1,1,0
7,'1',1,1,1,4.68,0.752,0.0,0.0,0.0,0.0,1,1,0
8,'1',1,1,1,12.79,0.817,0.0,0.0,0.0,0.0,1,1,0
9,'1',1,1,1,10.5,4.609,0.0,0.0,0.0,0.0,1,1,0
10,'1',1,1,1,17.57,4.289,0.0,0.0,0.0,0.0,1,1,0
11,'1',1,1,1,5.2,0.305,0.0,0.0,0.0,0.0,1,1,0
14,'1',1,1,1,5.2,0.3,0.0,0.0,0.0,0.0,1,1,0
14,'2',1,1,1,5.2,2.771,0.0,0.0,0.0,0.0,1,1,0
18,'1',1,1,1,14.87,1.231,0.0,0.0,0.0,0.0,1,1,0
21,'1',1,1,1,30.32,2.434,0.0,0.0,0.0,0.0,1,1,0
24,'1',1,1,1,10.95,4.156,0.0,0.0,0.0,0.0,1,1,0
25,'1',1,1,1,11.24,3.793,0.0,0.0,0.0,0.0,1,1,0
26,'1',1,1,1,4.55,0.645,0.0,0.0,0.0,0.0,1,1,0
30,'1',1,1,1,34.07,10.949,0.0,0.0,0.0,0.0,1,1,0
39,'1',1,1,1,16.58,8.431,0.0,0.0,0.0,0.0,1,1,0
40,'1',1,1,1,10.31,1.675,0.0,0.0,0.0,0.0,1,1,0
40,'2',1,1,1,0.77,0.372,0.0,0.0,0.0,0.0,1,1,0
41,'1',1,1,1,10.3,3.439,0.0,0.0,0.0,0.0,1,1,0
42,'1',1,1,1,10.31,0.681,0.0,0.0,0.0,0.0,1,1,0
42,'2',1,1,1,0.77,0.058,0.0,0.0,0.0,0.0,1,1,0
43,'1',1,1,1,10.31,3.754,0.0,0.0,0.0,0.0,1,1,0
43,'2',1,1,1,2.44,1.218,0.0,0.0,0.0,0.0,1,1,0
44,'1',1,1,1,8.04,2.597,0.0,0.0,0.0,0.0,1,1,0
44,'2',1,1,1,2.15,0.09,0.0,0.0,0.0,0.0,1,1,0
45,'1',1,1,1,8.04,1.935,0.0,0.0,0.0,0.0,1,1,0
46,'1',1,1,1,13.09,2.937,0.0,0.0,0.0,0.0,1,1,0
47,'1',1,1,1,6.22,1.016,0.0,0.0,0.0,0.0,1,1,0
48,'1',1,1,1,9.16,1.649,0.0,0.0,0.0,0.0,1,1,0
51,'1',1,1,1,8.67,2.329,0.0,0.0,0.0,0.0,1,1,0
55,'1',1,1,1,16.54,2.064,0.0,0.0,0.0,0.0,1,1,0
57,'1',1,1,1,5.98,1.225,0.0,0.0,0.0,0.0,1,1,0
58,'1',1,1,1,13.52,7.873,0.0,0.0,0.0,0.0,1,1,0
59,'1',1,1,1,7.32,0.73,0.0,0.0,0.0,0.0,1,1,0
59,'2',1,1,1,5.43,0.703,0.0,0.0,0.0,0.0,1,1,0
60,'1',1,1,1,7.32,3.869,0.0,0.0,0.0,0.0,1,1,0
61,'1',1,1,1,7.32,1.209,0.0,0.0,0.0,0.0,1,1,0
62,'1',1,1,1,18.07,3.198,0.0,0.0,0.0,0.0,1,1,0
66,'1',1,1,1,31.98,5.728,0.0,0.0,0.0,0.0,1,1,0
67,'1',1,1,1,9.06,0.994,0.0,0.0,0.0,0.0,1,1,0
70,'1',1,1,1,11.46,3.824,0.0,0.0,0.0,0.0,1,1,0
71,'1',1,1,1,4.88,1.265,0.0,0.0,0.0,0.0,1,1,0
71,'2',1,1,1,0.22,0.077,0.0,0.0,0.0,0.0,1,1,0
76,'1',1,1,1,5.41,0.958,0.0,0.0,0.0,0.0,1,1,0
77,'1',1,1,1,15.83,0.206,0.0,0.0,0.0,0.0,1,1,0
78,'1',1,1,1,3.1,0.533,0.0,0.0,0.0,0.0,1,1,0
84,'1',1,1,1,23.26,8.32,0.0,0.0,0.0,0.0,1,1,0
86,'1',1,1,1,2.69,0.649,0.0,0.0,0.0,0.0,1,1,0
88,'1',1,1,1,17.93,13.626,0.0,0.0,0.0,0.0,1,1,0
90,'1',1,1,1,11.67,4.279,0.0,0.0,0.0,0.0,1,1,0
90,'2',1,1,1,6.34,1.941,0.0,0.0,0.0,0.0,1,1,0
94,'1',1,1,1,31.32,10.287,0.0,0.0,0.0,0.0,1,1,0
97,'1',1,1,1,6.24,1.867,0.0,0.0,0.0,0.0,1,1,0
98,'1',1,1,1,13.73,5.163,0.0,0.0,0.0,0.0,1,1,0
100,'1',1,1,1,11.37,2.78,0.0,0.0,0.0,0.0,1,1,0
101,'1',1,1,1,8.14,1.135,0.0,0.0,0.0,0.0,1,1,0
103,'1',1,1,1,14.56,2.164,0.0,0.0,0.0,0.0,1,1,0
104,'1',1,1,1,28.18,3.024,0.0,0.0,0.0,0.0,1,1,0
109,'1',1,1,1,42.57,5.39,0.0,0.0,0.0,0.0,1,1,0
111,'1',1,1,1,6.09,1.623,0.0,0.0,0.0,0.0,1,1,0
112,'1',1,1,1,14.08,5.537,0.0,0.0,0.0,0.0,1,1,0
113,'1',1,1,1,44.55,13.537,0.0,0.0,0.0,0.0,1,1,0
114,'1',1,1,1,30.91,11.172,0.0,0.0,0.0,0.0,1,1,0
119,'1',1,1,1,9.66,4.539,0.0,0.0,0.0,0.0,1,1,0
121,'1',1,1,1,15.6,6.723,0.0,0.0,0.0,0.0,1,1,0
122,'1',1,1,1,4.46,0.708,0.0,0.0,0.0,0.0,1,1,0
124,'1',1,1,1,18.12,4.646,0.0,0.0,0.0,0.0,1,1,0
125,'1',1,1,1,29.3,10.172,0.0,0.0,0.0,0.0,1,1,0
126,'1',1,1,1,11.6,4.182,0.0,0.0,0.0,0.0,1,1,0
127,'1',1,1,1,7.43,0.997,0.0,0.0,0.0,0.0,1,1,0
129,'1',1,1,1,2.97,3.296,0.0,0.0,0.0,0.0,1,1,0
131,'1',1,1,1,31.03,6.785,0.0,0.0,0.0,0.0,1,1,0
135,'1',1,1,1,19.76,3.461,0.0,0.0,0.0,0.0,1,1,0
136,'1',1,1,1,11.32,2.549,0.0,0.0,0.0,0.0,1,1,0
137,'1',1,1,1,9.34,3.013,0.0,0.0,0.0,0.0,1,1,0
140,'1',1,1,1,5.74,3.699,0.0,0.0,0.0,0.0,1,1,0
140,'2',1,1,1,1.38,0.357,0.0,0.0,0.0,0.0,1,1,0
142,'1',1,1,1,3.74,2.803,0.0,0.0,0.0,0.0,1,1,0
143,'1',1,1,1,9.47,1.532,0.0,0.0,0.0,0.0,1,1,0
145,'1',1,1,1,10.39,0.869,0.0,0.0,0.0,0.0,1,1,0
147,'1',1,1,1,4.61,0.594,0.0,0.0,0.0,0.0,1,1,0
148,'1',1,1,1,12.34,4.295,0.0,0.0,0.0,0.0,1,1,0
150,'1',1,1,1,2.68,0.23,0.0,0.0,0.0,0.0,1,1,0
151,'1',1,1,1,7.62,1.617,0.0,0.0,0.0,0.0,1,1,0
152,'1',1,1,1,8.29,5.146,0.0,0.0,0.0,0.0,1,1,0
153,'1',1,1,1,5.44,1.276,0.0,0.0,0.0,0.0,1,1,0
155,'1',1,1,1,5.17,2.167,0.0,0.0,0.0,0.0,1,1,0
157,'1',1,1,1,5.42,0.859,0.0,0.0,0.0,0.0,1,1,0
158,'1',1,1,1,3.52,1.453,0.0,0.0,0.0,0.0,1,1,0
159,'1',1,1,1,7.74,3.149,0.0,0.0,0.0,0.0,1,1,0
162,'1',1,1,1,15.3,4.72,0.0,0.0,0.0,0.0,1,1,0
164,'1',1,1,1,7.46,2.042,0.0,0.0,0.0,0.0,1,1,0
165,'1',1,1,1,10.46,1.298,0.0,0.0,0.0,0.0,1,1,0
168,'1',1,1,1,10.26,3.492,0.0,0.0,0.0,0.0,1,1,0
169,'1',1,1,1,10.26,3.179,0.0,0.0,0.0,0.0,1,1,0
171,'1',1,1,1,10.39,3.359,0.0,0.0,0.0,0.0,1,1,0
174,'1',1,1,1,10.26,3.439,0.0,0.0,0.0,0.0,1,1,0
175,'1',1,1,1,12.76,3.533,0.0,0.0,0.0,0.0,1,1,0
177,'1',1,1,1,4.98,1.326,0.0,0.0,0.0,0.0,1,1,0
179,'1',1,1,1,13.32,2.723,0.0,0.0,0.0,0.0,1,1,0
182,'1',1,1,1,6.42,0.372,0.0,0.0,0.0,0.0,1,1,0
184,'1',1,1,1,3.92,1.931,0.0,0.0,0.0,0.0,1,1,0
186,'1',1,1,1,7.08,3.692,0.0,0.0,0.0,0.0,1,1,0
188,'1',1,1,1,9.84,4.205,0.0,0.0,0.0,0.0,1,1,0
189,'1',1,1,1,9.2,0.651,0.0,0.0,0.0,0.0,1,1,0
190,'1',1,1,1,2.43,0.619,0.0,0.0,0.0,0.0,1,1,0
191,'1',1,1,1,2.66,1.373,0.0,0.0,0.0,0.0,1,1,0
192,'1',1,1,1,8.99,1.634,0.0,0.0,0.0,0.0,1,1,0
195,'1',1,1,1,27.74,9.319,0.0,0.0,0.0,0.0,1,1,0
197,'1',1,1,1,9.42,1.994,0.0,0.0,0.0,0.0,1,1,0
200,'1',1,1,1,17.37,6.384,0.0,0.0,0.0,0.0,1,1,0
202,'1',1,1,1,8.34,4.808,0.0,0.0,0.0,0.0,1,1,0
204,'1',1,1,1,14.34,6.126,0.0,0.0,0.0,0.0,1,1,0
205,'1',1,1,1,11.65,1.403,0.0,0.0,0.0,0.0,1,1,0
206,'1',1,1,1,11.3,6.449,0.0,0.0,0.0,0.0,1,1,0
209,'1',1,1,1,34.95,17.454,0.0,0.0,0.0,0.0,1,1,0
211,'1',1,1,1,11.46,4.583,0.0,0.0,0.0,0.0,1,1,0
213,'1',1,1,1,2.0,0.642,0.0,0.0,0.0,0.0,1,1,0
214,'1',1,1,1,1.58,0.23,0.0,0.0,0.0,0.0,1,1,0
219,'1',1,1,1,8.97,1.994,0.0,0.0,0.0,0.0,1,1,0
220,'1',1,1,1,1.22,0.246,0.0,0.0,0.0,0.0,1,1,0
221,'1',1,1,1,6.58,1.572,0.0,0.0,0.0,0.0,1,1,0
224,'1',1,1,1,1.77,0.496,0.0,0.0,0.0,0.0,1,1,0
225,'1',1,1,1,6.27,0.837,0.0,0.0,0.0,0.0,1,1,0
227,'1',1,1,1,4.62,0.985,0.0,0.0,0.0,0.0,1,1,0
228,'1',1,1,1,10.33,2.288,0.0,0.0,0.0,0.0,1,1,0
229,'1',1,1,1,6.41,2.163,0.0,0.0,0.0,0.0,1,1,0
230,'1',1,1,1,18.35,2.459,0.0,0.0,0.0,0.0,1,1,0
232,'1',1,1,1,9.37,2.321,0.0,0.0,0.0,0.0,1,1,0
233,'1',1,1,1,5.79,1.361,0.0,0.0,0.0,0.0,1,1,0
237,'1',1,1,1,13.51,4.857,0.0,0.0,0.0,0.0,1,1,0
239,'1',1,1,1,4.68,1.745,0.0,0.0,0.0,0.0,1,1,0
241,'1',1,1,1,4.5,0.95,0.0,0.0,0.0,0.0,1,1,0
242,'1',1,1,1,1.94,1.007,0.0,0.0,0.0,0.0,1,1,0
243,'1',1,1,1,2.26,2.786,0.0,0.0,0.0,0.0,1,1,0
244,'1',1,1,1,3.35,0.971,0.0,0.0,0.0,0.0,1,1,0
247,'1',1,1,1,11.88,4.424,0.0,0.0,0.0,0.0,1,1,0
249,'1',1,1,1,3.76,0.711,0.0,0.0,0.0,0.0,1,1,0
254,'1',1,1,1,23.9,2.194,0.0,0.0,0.0,0.0,1,1,0
256,'1',1,1,1,9.06,0.582,0.0,0.0,0.0,0.0,1,1,0
259,'1',1,1,1,10.95,5.938,0.0,0.0,0.0,0.0,1,1,0
260,'1',1,1,1,1.26,0.824,0.0,0.0,0.0,0.0,1,1,0
263,'1',1,1,1,13.65,3.259,0.0,0.0,0.0,0.0,1,1,0
263,'2',1,1,1,13.65,4.922,0.0,0.0,0.0,0.0,1,1,0
264,'1',1,1,1,13.65,2.684,0.0,0.0,0.0,0.0,1,1,0
265,'1',1,1,1,16.02,2.905,0.0,0.0,0.0,0.0,1,1,0
267,'1',1,1,1,13.65,3.839,0.0,0.0,0.0,0.0,1,1,0
270,'1',1,1,1,10.98,4.982,0.0,0.0,0.0,0.0,1,1,0
271,'1',1,1,1,19.85,5.047,0.0,0.0,0.0,0.0,1,1,0
274,'1',1,1,1,4.6,2.317,0.0,0.0,0.0,0.0,1,1,0
276,'1',1,1,1,2.32,0.439,0.0,0.0,0.0,0.0,1,1,0
277,'1',1,1,1,6.15,0.59,0.0,0.0,0.0,0.0,1,1,0
278,'1',1,1,1,10.38,6.184,0.0,0.0,0.0,0.0,1,1,0
279,'1',1,1,1,3.17,0.364,0.0,0.0,0.0,0.0,1,1,0
280,'1',1,1,1,13.12,4.388,0.0,0.0,0.0,0.0,1,1,0
281,'1',1,1,1,13.12,3.869,0.0,0.0,0.0,0.0,1,1,0
281,'2',1,1,1,13.12,5.558,0.0,0.0,0.0,0.0,1,1,0
282,'1',1,1,1,7.14,1.831,0.0,0.0,0.0,0.0,1,1,0
283,'1',1,1,1,13.77,3.325,0.0,0.0,0.0,0.0,1,1,0
283,'2',1,1,1,13.77,4.66,0.0,0.0,0.0,0.0,1,1,0
286,'1',1,1,1,13.77,2.982,0.0,0.0,0.0,0.0,1,1,0
290,'1',1,1,1,12.1,0.692,0.0,0.0,0.0,0.0,1,1,0
292,'1',1,1,1,17.24,12.532,0.0,0.0,0.0,0.0,1,1,0
296,'1',1,1,1,16.1,1.298,0.0,0.0,0.0,0.0,1,1,0
296,'2',1,1,1,16.1,2.648,0.0,0.0,0.0,0.0,1,1,0
298,'1',1,1,1,16.1,11.373,0.0,0.0,0.0,0.0,1,1,0
300,'1',1,1,1,16.1,3.084,0.0,0.0,0.0,0.0,1,1,0
301,'1',1,1,1,3.89,1.642,0.0,0.0,0.0,0.0,1,1,0
305,'1',1,1,1,4.75,0.618,0.0,0.0,0.0,0.0,1,1,0
306,'1',1,1,1,2.15,1.147,0.0,0.0,0.0,0.0,1,1,0
307,'1',1,1,1,3.64,0.576,0.0,0.0,0.0,0.0,1,1,0
308,'1',1,1,1,3.38,1.377,0.0,0.0,0.0,0.0,1,1,0
309,'1',1,1,1,13.32,0.641,0.0,0.0,0.0,0.0,1,1,0
313,'1',1,1,1,14.13,8.344,0.0,0.0,0.0,0.0,1,1,0
314,'1',1,1,1,13.32,1.432,0.0,0.0,0.0,0.0,1,1,0
316,'1',1,1,1,13.32,1.452,0.0,0.0,0.0,0.0,1,1,0
317,'1',1,1,1,4.03,0.963,0.0,0.0,0.0,0.0,1,1,0
319,'1',1,1,1,2.67,1.361,0.0,0.0,0.0,0.0,1,1,0
321,'1',1,1,1,3.7,0.63,0.0,0.0,0.0,0.0,1,1,0
322,'1',1,1,1,8.13,2.407,0.0,0.0,0.0,0.0,1,1,0
325,'1',1,1,1,11.22,1.469,0.0,0.0,0.0,0.0,1,1,0
327,'1',1,1,1,7.74,3.389,0.0,0.0,0.0,0.0,1,1,0
329,'1',1,1,1,11.38,2.876,0.0,0.0,0.0,0.0,1,1,0
331,'1',1,1,1,7.74,4.349,0.0,0.0,0.0,0.0,1,1,0
337,'1',1,1,1,13.76,1.683,0.0,0.0,0.0,0.0,1,1,0
340,'1',1,1,1,12.82,2.053,0.0,0.0,0.0,0.0,1,1,0
342,'1',1,1,1,5.7,1.365,0.0,0.0,0.0,0.0,1,1,0
343,'1',1,1,1,6.37,2.71,0.0,0.0,0.0,0.0,1,1,0
344,'1',1,1,1,8.41,5.114,0.0,0.0,0.0,0.0,1,1,0
345,'1',1,1,1,8.87,1.496,0.0,0.0,0.0,0.0,1,1,0
347,'1',1,1,1,23.59,2.217,0.0,0.0,0.0,0.0,1,1,0
350,'1',1,1,1,15.62,0.479,0.0,0.0,0.0,0.0,1,1,0
352,'1',1,1,1,18.26,3.084,0.0,0.0,0.0,0.0,1,1,0
353,'1',1,1,1,5.65,1.422,0.0,0.0,0.0,0.0,1,1,0
356,'1',1,1,1,12.72,5.645,0.0,0.0,0.0,0.0,1,1,0
359,'1',1,1,1,5.65,0.949,0.0,0.0,0.0,0.0,1,1,0
359,'2',1,1,1,0.11,0.046,0.0,0.0,0.0,0.0,1,1,0
360,'1',1,1,1,4.71,0.255,0.0,0.0,0.0,0.0,1,1,0
...
0 / END OF LOAD DATA BEGIN FIXED SHUNT DATA
27,'2',1,0.0,-60.0
194,'2',1,0.0,40.0
252,'2',1,0.0,0.0
371,'2',1,0.0,0.0
383,'2',1,0.0,0.0
473,'2',1,0.0,110.0
473,'3',1,0.0,110.0
509,'2',1,0.0,0.0
567,'2',1,0.0,20.0
590,'2',1,0.0,0.0
644,'2',1,0.0,0.0
682,'2',1,0.0,0.0
748,'2',1,0.0,0.0
759,'2',1,0.0,60.0
759,'3',1,0.0,60.0
834,'2',1,0.0,10.0
842,'2',1,0.0,40.0
898,'2',1,0.0,0.0
902,'2',1,0.0,0.0
1020,'2',1,0.0,0.0
1050,'2',1,0.0,0.0
1074,'2',1,0.0,0.0
1116,'2',1,0.0,0.0
1116,'3',1,0.0,0.0
1120,'2',1,0.0,0.0
1185,'2',1,0.0,0.0
1277,'2',1,0.0,30.0
1296,'2',1,0.0,10.0
1296,'3',1,0.0,10.0
1300,'2',1,0.0,10.0
1320,'2',1,0.0,0.0
1336,'2',1,0.0,0.0
1343,'2',1,0.0,10.0
1343,'3',1,0.0,10.0
1423,'2',1,0.0,-20.0
1444,'2',1,0.0,0.0
1472,'2',1,0.0,0.0
1502,'2',1,0.0,0.0
1567,'2',1,0.0,10.0
1600,'2',1,0.0,0.0
1608,'2',1,0.0,0.0
1737,'2',1,0.0,10.0
1749,'2',1,0.0,0.0
1794,'2',1,0.0,30.0
1794,'3',1,0.0,30.0
1816,'2',1,0.0,80.0
1822,'2',1,0.0,0.0
1888,'2',1,0.0,60.0
1888,'3',1,0.0,60.0
1888,'4',1,0.0,60.0
1933,'2',1,0.0,0.0
1977,'2',1,0.0,0.0
1977,'3',1,0.0,0.0
2001,'2',1,0.0,40.0
2136,'2',1,0.0,0.0
2144,'2',1,0.0,20.0
2189,'2',1,0.0,0.0
2199,'2',1,0.0,80.0
2986,'2',1,0.0,-60.0
3117,'2',1,0.0,-10.0
3198,'2',1,0.0,0.0
3209,'2',1,0.0,0.0
3306,'2',1,0.0,10.0
3385,'2',1,0.0,30.0
3401,'2',1,0.0,-20.0
3428,'2',1,0.0,40.0
3428,'3',1,0.0,40.0
3428,'4',1,0.0,40.0
3447,'2',1,0.0,-160.0
3447,'3',1,0.0,-160.0
3499,'2',1,0.0,0.0
3803,'2',1,0.0,0.0
3811,'2',1,0.0,-10.0
3892,'2',1,0.0,0.0
4030,'2',1,0.0,10.0
4565,'2',1,0.0,0.0
4629,'2',1,0.0,0.0
4799,'2',1,0.0,60.0
4799,'3',1,0.0,60.0
5065,'2',1,0.0,0.0
5223,'2',1,0.0,0.0
5716,'2',1,0.0,30.0
6039,'2',1,0.0,0.0
6059,'2',1,0.0,-50.0
6249,'2',1,0.0,-40.0
6496,'2',1,0.0,0.0
6565,'2',1,0.0,0.0
6574,'2',1,0.0,0.0
6782,'2',1,0.0,0.0
6811,'2',1,0.0,0.0
6819,'2',1,0.0,0.0
6901,'2',1,0.0,-10.0
7143,'2',1,0.0,0.0
7459,'2',1,0.0,30.0
7654,'2',1,0.0,90.0
7674,'2',1,0.0,10.0
7697,'2',1,0.0,0.0
7853,'2',1,0.0,0.0
8032,'2',1,0.0,30.0
8172,'2',1,0.0,-30.0
8208,'2',1,0.0,0.0
8215,'2',1,0.0,0.0
8233,'2',1,0.0,30.0
8259,'2',1,0.0,0.0
8264,'2',1,0.0,20.0
8608,'2',1,0.0,0.0
8882,'2',1,0.0,120.0
9050,'2',1,0.0,-40.0
9232,'2',1,0.0,0.0
9399,'2',1,0.0,0.0
9441,'2',1,0.0,0.0
9614,'2',1,0.0,-10.0
0 / END OF FIXED SHUNT DATA BEGIN GENERATOR DATA
2275,'1',30.48,0.0,48.61,-10.6,1.036,0,114.6,0.0,1.0,0.0,0.0,1.0,1,100.0,95.5,29.823,1,1.0,0,1.0,0,1.0,0,1.0,0,1.0
2276,'1',40.14,0.0,48.61,-10.6,1.036,0,114.6,0.0,1.0,0.0,0.0,1.0,1,100.0,95.5,39.579,1,1.0,0,1.0,0,1.0,0,1.0,0,1.0
2277,'1',12.62,0.0,48.61,-10.6,1.036,0,114.6,0.0,1.0,0.0,0.0,1.0,1,100.0,95.5,11.785,1,1.0,0,1.0,0,1.0,0,1.0,0,1.0
2278,'1',12.16,0.0,48.61,-10.6,1.036,0,114.6,0.0,1.0,0.0,0.0,1.0,1,100.0,95.5,11.323,1,1.0,0,1.0,0,1.0,0,1.0,0,1.0
2279,'1',23.28,0.0,48.61,-10.6,1.036,0,114.6,0.0,1.0,0.0,0.0,1.0,1,100.0,95.5,22.555,1,1.0,0,1.0,0,1.0,0,1.0,0,1.0
2280,'1',19.91,0.0,48.61,-10.6,1.036,0,114.6,0.0,1.0,0.0,0.0,1.0,1,100.0,95.5,19.149,1,1.0,0,1.0,0,1.0,0,1.0,0,1.0
2285,'1',59.86,0.0,42.813,-28.944,1.04,0,241.2,0.0,1.0,0.0,0.0,1.0,1,100.0,201.0,58.433,1,1.0,0,1.0,0,1.0,0,1.0,1,1.0
2289,'1',2.73,0.0,3.542,-0.927,1.037,0,9.12,0.0,1.0,0.0,0.0,1.0,0,100.0,7.6,2.682,1,1.0,0,1.0,0,1.0,0,1.0,0,1.0
2289,'2',1.54,0.0,2.19,-0.573,1.037,0,5.64,0.0,1.0,0.0,0.0,1.0,0,100.0,4.7,1.507,1,1.0,0,1.0,0,1.0,0,1.0,0,1.0
2290,'1',0.80,0.0,0.808,-0.211,1.039,0,2.08,0.0,1.0,0.0,0.0,1.0,0,100.0,1.73,0.79,1,1.0,0,1.0,0,1.0,0,1.0,0,1.0
2290,'2',0.35,0.0,0.808,-0.211,1.039,0,2.08,0.0,1.0,0.0,0.0,1.0,0,100.0,1.73,0.337,1,1.0,0,1.0,0,1.0,0,1.0,0,1.0
2291,'1',0.59,0.0,0.808,-0.211,1.039,0,2.08,0.0,1.0,0.0,0.0,1.0,0,100.0,1.73,0.583,1,1.0,0,1.0,0,1.0,0,1.0,0,1.0
2291,'2',0.86,0.0,0.808,-0.211,1.039,0,2.08,0.0,1.0,0.0,0.0,1.0,0,100.0,1.73,0.849,1,1.0,0,1.0,0,1.0,0,1.0,0,1.0
2292,'1',0.33,0.0,0.808,-0.211,1.039,0,2.08,0.0,1.0,0.0,0.0,1.0,0,100.0,1.73,0.316,1,1.0,0,1.0,0,1.0,0,1.0,0,1.0
2293,'1',0.56,0.0,0.808,-0.211,1.037,0,2.08,0.0,1.0,0.0,0.0,1.0,0,100.0,1.73,0.545,1,1.0,0,1.0,0,1.0,0,1.0,0,1.0
2294,'1',0.44,0.0,0.746,-0.195,1.039,0,1.92,0.0,1.0,0.0,0.0,1.0,0,100.0,1.6,0.427,1,1.0,0,1.0,0,1.0,0,1.0,0,1.0
2294,'2',0.44,0.0,0.746,-0.195,1.039,0,1.92,0.0,1.0,0.0,0.0,1.0,0,100.0,1.6,0.429,1,1.0,0,1.0,0,1.0,0,1.0,0,1.0
2295,'1',0.47,0.0,0.699,-0.183,1.037,0,1.8,0.0,1.0,0.0,0.0,1.0,0,100.0,1.5,0.455,1,1.0,0,1.0,0,1.0,0,1.0,0,1.0
2295,'2',0.17,0.0,0.652,-0.171,1.037,0,1.68,0.0,1.0,0.0,0.0,1.0,0,100.0,1.4,0.161,1,1.0,0,1.0,0,1.0,0,1.0,0,1.0
2296,'1',0.24,0.0,0.233,-0.061,1.031,0,0.6,0.0,1.0,0.0,0.0,1.0,0,100.0,0.5,0.238,1,1.0,0,1.0,0,1.0,0,1.0,0,1.0
2302,'1',113.03,0.0,149.646,-32.634,1.0355,0,352.8,0.0,1.0,0.0,0.0,1.0,0,100.0,294.0,111.202,1,1.0,0,1.0,0,1.0,0,1.0,0,1.0
2303,'1',89.78,0.0,149.646,-32.634,1.031,0,352.8,0.0,1.0,0.0,0.0,1.0,0,100.0,294.0,87.715,1,1.0,0,1.0,0,1.0,0,1.0,0,1.0
2304,'1',75.38,0.0,149.646,-32.634,1.0355,0,352.8,0.0,1.0,0.0,0.0,1.0,0,100.0,294.0,73.167,1,1.0,0,1.0,0,1.0,0,1.0,0,1.0
2310,'1',277.49,0.0,290.038,-75.933,1.04,0,746.88,0.0,1.0,0.0,0.0,1.0,0,100.0,622.4,274.004,1,1.0,0,1.0,0,1.0,0,1.0,0,1.0
2315,'1',50.96,0.0,57.262,-12.488,1.0135,0,135.0,0.0,1.0,0.0,0.0,1.0,1,100.0,112.5,50.341,1,1.0,0,1.0,0,1.0,0,1.0,0,1.0
2316,'1',37.28,0.0,57.262,-12.488,1.0135,0,135.0,0.0,1.0,0.0,0.0,1.0,1,100.0,112.5,36.523,1,1.0,0,1.0,0,1.0,0,1.0,0,1.0
2317,'1',48.13,0.0,57.262,-12.488,1.0135,0,135.0,0.0,1.0,0.0,0.0,1.0,1,100.0,112.5,47.475,1,1.0,0,1.0,0,1.0,0,1.0,0,1.0
2318,'1',16.07,0.0,57.262,-12.488,1.0135,0,135.0,0.0,1.0,0.0,0.0,1.0,1,100.0,112.5,15.094,1,1.0,0,1.0,0,1.0,0,1.0,0,1.0
2323,'1',26.53,0.0,34.293,-23.184,1.04,0,193.2,0.0,1.0,0.0,0.0,1.0,1,100.0,161.0,25.175,1,1.0,0,1.0,0,1.0,0,1.0,1,1.0
2327,'1',40.26,0.0,21.556,-14.573,1.04,0,121.44,0.0,1.0,0.0,0.0,1.0,1,100.0,101.2,39.642,1,1.0,0,1.0,0,1.0,0,1.0,1,1.0
2332,'1',55.54,0.0,93.317,-20.35,1.0625,0,220.0,0.0,1.0,0.0,0.0,1.0,1,100.0,183.33,54.251,1,1.0,0,1.0,0,1.0,0,1.0,0,1.0
2333,'1',86.21,0.0,93.317,-20.35,1.0625,0,220.0,0.0,1.0,0.0,0.0,1.0,1,100.0,183.33,85.229,1,1.0,0,1.0,0,1.0,0,1.0,0,1.0
2334,'1',70.98,0.0,93.317,-20.35,1.0625,0,220.0,0.0,1.0,0.0,0.0,1.0,0,100.0,183.33,69.843,1,1.0,0,1.0,0,1.0,0,1.0,0,1.0
2340,'1',193.12,0.0,336.452,-88.084,1.04,0,866.4,0.0,1.0,0.0,0.0,1.0,0,100.0,722.0,187.779,1,1.0,0,1.0,0,1.0,0,1.0,0,1.0
2341,'1',299.70,0.0,336.452,-88.084,1.04,0,866.4,0.0,1.0,0.0,0.0,1.0,0,100.0,722.0,295.436,1,1.0,0,1.0,0,1.0,0,1.0,0,1.0
2346,'1',14.44,0.0,45.505,-9.923,1.036,0,107.28,0.0,1.0,0.0,0.0,1.0,1,100.0,89.4,13.679,1,1.0,0,1.0,0,1.0,0,1.0,0,1.0
2347,'1',21.61,0.0,45.505,-9.923,1.036,0,107.28,0.0,1.0,0.0,0.0,1.0,1,100.0,89.4,20.929,1,1.0,0,1.0,0,1.0,0,1.0,0,1.0
2348,'1',19.07,0.0,45.505,-9.923,1.036,0,107.28,0.0,1.0,0.0,0.0,1.0,1,100.0,89.4,18.355,1,1.0,0,1.0,0,1.0,0,1.0,0,1.0
2349,'1',37.40,0.0,45.505,-9.923,1.036,0,107.28,0.0,1.0,0.0,0.0,1.0,1,100.0,89.4,36.878,1,1.0,0,1.0,0,1.0,0,1.0,0,1.0
2350,'1',26.21,0.0,45.505,-9.923,1.036,0,107.28,0.0,1.0,0.0,0.0,1.0,1,100.0,89.4,25.574,1,1.0,0,1.0,0,1.0,0,1.0,0,1.0
2351,'1',41.77,0.0,45.505,-9.923,1.036,0,107.28,0.0,1.0,0.0,0.0,1.0,1,100.0,89.4,41.285,1,1.0,0,1.0,0,1.0,0,1.0,0,1.0
2352,'1',0.12,0.0,0.221,-0.048,1.04,0,0.52,0.0,1.0,0.0,0.0,1.0,1,100.0,0.43,0.114,1,1.0,0,1.0,0,1.0,0,1.0,0,1.0
2353,'1',0.18,0.0,0.221,-0.048,1.036,0,0.52,0.0,1.0,0.0,0.0,1.0,1,100.0,0.43,0.174,1,1.0,0,1.0,0,1.0,0,1.0,0,1.0
2353,'2',0.21,0.0,0.221,-0.048,1.036,0,0.52,0.0,1.0,0.0,0.0,1.0,1,100.0,0.43,0.211,1,1.0,0,1.0,0,1.0,0,1.0,0,1.0
2358,'1',2.49,0.0,8.029,-1.751,1.04,0,18.93,0.0,1.0,0.0,0.0,1.0,1,100.0,15.77,2.354,1,1.0,0,1.0,0,1.0,0,1.0,0,1.0
2358,'2',7.96,0.0,8.029,-1.751,1.04,0,18.93,0.0,1.0,0.0,0.0,1.0,1,100.0,15.77,7.877,1,1.0,0,1.0,0,1.0,0,1.0,0,1.0
2359,'1',5.46,0.0,8.029,-1.751,1.04,0,18.93,0.0,1.0,0.0,0.0,1.0,1,100.0,15.77,5.353,1,1.0,0,1.0,0,1.0,0,1.0,0,1.0
2360,'1',4.85,0.0,8.029,-1.751,1.045,0,18.93,0.0,1.0,0.0,0.0,1.0,1,100.0,15.77,4.735,1,1.0,0,1.0,0,1.0,0,1.0,0,1.0
2364,'1',23.04,0.0,90.856,-19.814,1.036,0,214.2,0.0,1.0,0.0,0.0,1.0,1,100.0,178.5,21.473,1,1.0,0,1.0,0,1.0,0,1.0,0,1.0
2365,'1',50.83,0.0,90.856,-19.814,1.036,0,214.2,0.0,1.0,0.0,0.0,1.0,1,100.0,178.5,49.538,1,1.0,0,1.0,0,1.0,0,1.0,0,1.0
2366,'1',58.11,0.0,90.856,-19.814,1.036,0,214.2,0.0,1.0,0.0,0.0,1.0,1,100.0,178.5,56.891,1,1.0,0,1.0,0,1.0,0,1.0,0,1.0
2371,'1',41.21,0.0,123.891,-27.017,1.0495,0,292.08,0.0,1.0,0.0,0.0,1.0,0,100.0,243.4,39.17,1,1.0,0,1.0,0,1.0,0,1.0,0,1.0
2372,'1',80.37,0.0,123.891,-27.017,1.0495,0,292.08,0.0,1.0,0.0,0.0,1.0,0,100.0,243.4,78.726,1,1.0,0,1.0,0,1.0,0,1.0,0,1.0
2373,'1',114.18,0.0,123.891,-27.017,1.0495,0,292.08,0.0,1.0,0.0,0.0,1.0,0,100.0,243.4,112.876,1,1.0,0,1.0,0,1.0,0,1.0,0,1.0
2376,'1',0.69,0.0,1.756,-0.383,1.04,0,4.14,0.0,1.0,0.0,0.0,1.0,1,100.0,3.45,0.659,1,1.0,0,1.0,0,1.0,0,1.0,0,1.0
2376,'2',1.51,0.0,1.756,-0.383,1.04,0,4.14,0.0,1.0,0.0,0.0,1.0,1,100.0,3.45,1.486,1,1.0,0,1.0,0,1.0,0,1.0,0,1.0
2376,'3',1.61,0.0,2.545,-0.555,1.04,0,6.0,0.0,1.0,0.0,0.0,1.0,1,100.0,5.0,1.574,1,1.0,0,1.0,0,1.0,0,1.0,0,1.0
2376,'4',9.58,0.0,24.432,-5.328,1.04,0,57.6,0.0,1.0,0.0,0.0,1.0,1,100.0,48.0,9.187,1,1.0,0,1.0,0,1.0,0,1.0,0,1.0
2379,'1',13.65,0.0,0.0,0.0,1.04,0,47.52,0.0,1.0,0.0,0.0,1.0,1,100.0,39.6,13.389,1,1.0,0,1.0,0,1.0,0,1.0,0,1.0
2384,'1',30.61,0.0,66.17,-14.43,1.009,0,156.0,0.0,1.0,0.0,0.0,1.0,1,100.0,130.0,29.611,1,1.0,0,1.0,0,1.0,0,1.0,0,1.0
2385,'1',36.72,0.0,66.17,-14.43,1.009,0,156.0,0.0,1.0,0.0,0.0,1.0,1,100.0,130.0,35.775,1,1.0,0,1.0,0,1.0,0,1.0,0,1.0
2390,'1',41.12,0.0,79.353,-17.305,1.0525,0,187.08,0.0,1.0,0.0,0.0,1.0,1,100.0,155.9,39.963,1,1.0,0,1.0,0,1.0,0,1.0,0,1.0
2391,'1',50.95,0.0,79.353,-17.305,1.0525,0,187.08,0.0,1.0,0.0,0.0,1.0,1,100.0,155.9,49.889,1,1.0,0,1.0,0,1.0,0,1.0,0,1.0
2392,'1',22.38,0.0,79.353,-17.305,1.0525,0,187.08,0.0,1.0,0.0,0.0,1.0,1,100.0,155.9,21.03,1,1.0,0,1.0,0,1.0,0,1.0,0,1.0
2397,'1',83.58,0.0,335.986,-87.962,1.04,0,865.2,0.0,1.0,0.0,0.0,1.0,0,100.0,721.0,77.142,1,1.0,0,1.0,0,1.0,0,1.0,0,1.0
2401,'1',0.87,0.0,1.229,-0.157,1.039,0,3.84,0.0,1.0,0.0,0.0,1.0,1,100.0,3.2,0.842,1,1.0,0,1.0,0,1.0,0,1.0,0,1.0
2401,'2',1.42,0.0,1.229,-0.157,1.039,0,3.84,0.0,1.0,0.0,0.0,1.0,1,100.0,3.2,1.397,1,1.0,0,1.0,0,1.0,0,1.0,0,1.0
2401,'3',1.26,0.0,1.229,-0.157,1.039,0,3.84,0.0,1.0,0.0,0.0,1.0,1,100.0,3.2,1.238,1,1.0,0,1.0,0,1.0,0,1.0,0,1.0
2401,'4',7.78,0.0,12.672,-1.617,1.039,0,39.6,0.0,1.0,0.0,0.0,1.0,1,100.0,33.0,7.526,1,1.0,0,1.0,0,1.0,0,1.0,0,1.0
2401,'5',8.20,0.0,12.672,-1.617,1.039,0,39.6,0.0,1.0,0.0,0.0,1.0,1,100.0,33.0,7.945,1,1.0,0,1.0,0,1.0,0,1.0,0,1.0
2404,'1',15.84,0.0,16.241,-10.98,1.0455,0,91.5,0.0,1.0,0.0,0.0,1.0,1,100.0,76.25,15.232,1,1.0,0,1.0,0,1.0,0,1.0,1,1.0
2404,'2',22.63,0.0,16.241,-10.98,1.0455,0,91.5,0.0,1.0,0.0,0.0,1.0,1,100.0,76.25,22.085,1,1.0,0,1.0,0,1.0,0,1.0,1,1.0
2409,'1',3.90,0.0,14.252,-3.108,1.033,0,33.6,0.0,1.0,0.0,0.0,1.0,1,100.0,28.0,3.66,1,1.0,0,1.0,0,1.0,0,1.0,0,1.0
2409,'2',4.47,0.0,14.252,-3.108,1.033,0,33.6,0.0,1.0,0.0,0.0,1.0,1,100.0,28.0,4.228,1,1.0,0,1.0,0,1.0,0,1.0,0,1.0
2410,'1',8.71,0.0,14.252,-3.108,1.04,0,33.6,0.0,1.0,0.0,0.0,1.0,1,100.0,28.0,8.52,1,1.0,0,1.0,0,1.0,0,1.0,0,1.0
2411,'1',9.79,0.0,14.252,-3.108,1.04,0,33.6,0.0,1.0,0.0,0.0,1.0,1,100.0,28.0,9.61,1,1.0,0,1.0,0,1.0,0,1.0,0,1.0
2411,'2',3.94,0.0,14.252,-3.108,1.04,0,33.6,0.0,1.0,0.0,0.0,1.0,1,100.0,28.0,3.693,1,1.0,0,1.0,0,1.0,0,1.0,0,1.0
2412,'1',4.31,0.0,14.252,-3.108,1.04,0,33.6,0.0,1.0,0.0,0.0,1.0,1,100.0,28.0,4.069,1,1.0,0,1.0,0,1.0,0,1.0,0,1.0
2416,'1',12.94,0.0,14.405,-3.141,1.04,0,33.96,0.0,1.0,0.0,0.0,1.0,1,100.0,28.3,12.782,1,1.0,0,1.0,0,1.0,0,1.0,0,1.0
2416,'2',8.32,0.0,14.405,-3.141,1.04,0,33.96,0.0,1.0,0.0,0.0,1.0,1,100.0,28.3,8.123,1,1.0,0,1.0,0,1.0,0,1.0,0,1.0
2417,'1',14.17,0.0,14.405,-3.141,1.04,0,33.96,0.0,1.0,0.0,0.0,1.0,1,100.0,28.3,14.024,1,1.0,0,1.0,0,1.0,0,1.0,0,1.0
2417,'2',3.59,0.0,14.405,-3.141,1.04,0,33.96,0.0,1.0,0.0,0.0,1.0,1,100.0,28.3,3.342,1,1.0,0,1.0,0,1.0,0,1.0,0,1.0
2418,'1',9.83,0.0,14.405,-3.141,1.04,0,33.96,0.0,1.0,0.0,0.0,1.0,1,100.0,28.3,9.646,1,1.0,0,1.0,0,1.0,0,1.0,0,1.0
2418,'2',7.44,0.0,14.405,-3.141,1.04,0,33.96,0.0,1.0,0.0,0.0,1.0,1,100.0,28.3,7.23,1,1.0,0,1.0,0,1.0,0,1.0,0,1.0
2423,'1',9.26,0.0,31.049,-6.771,1.031,0,73.2,0.0,1.0,0.0,0.0,1.0,1,100.0,61.0,8.738,1,1.0,0,1.0,0,1.0,0,1.0,0,1.0
2424,'1',4.36,0.0,12.216,-2.664,1.04,0,28.8,0.0,1.0,0.0,0.0,1.0,1,100.0,24.0,4.166,1,1.0,0,1.0,0,1.0,0,1.0,0,1.0
2428,'1',113.56,0.0,126.571,-27.602,1.065,0,298.4,0.0,1.0,0.0,0.0,1.0,0,100.0,248.67,112.194,1,1.0,0,1.0,0,1.0,0,1.0,0,1.0
2429,'1',90.57,0.0,126.571,-27.602,1.065,0,298.4,0.0,1.0,0.0,0.0,1.0,0,100.0,248.67,88.972,1,1.0,0,1.0,0,1.0,0,1.0,0,1.0
2430,'1',85.07,0.0,126.571,-27.602,1.065,0,298.4,0.0,1.0,0.0,0.0,1.0,0,100.0,248.67,83.42,1,1.0,0,1.0,0,1.0,0,1.0,0,1.0
2433,'1',13.10,0.0,45.505,-9.923,1.044,0,107.28,0.0,1.0,0.0,0.0,1.0,1,100.0,89.4,12.325,1,1.0,0,1.0,0,1.0,0,1.0,0,1.0
2433,'2',16.01,0.0,45.505,-9.923,1.044,0,107.28,0.0,1.0,0.0,0.0,1.0,1,100.0,89.4,15.264,1,1.0,0,1.0,0,1.0,0,1.0,0,1.0
2433,'3',24.57,0.0,45.505,-9.923,1.044,0,107.28,0.0,1.0,0.0,0.0,1.0,1,100.0,89.4,23.92,1,1.0,0,1.0,0,1.0,0,1.0,0,1.0
2433,'4',36.85,0.0,45.505,-9.923,1.044,0,107.28,0.0,1.0,0.0,0.0,1.0,1,100.0,89.4,36.32,1,1.0,0,1.0,0,1.0,0,1.0,0,1.0
2433,'5',11.52,0.0,45.505,-9.923,1.044,0,107.28,0.0,1.0,0.0,0.0,1.0,1,100.0,89.4,10.73,1,1.0,0,1.0,0,1.0,0,1.0,0,1.0
2441,'1',54.48,0.0,85.682,-18.685,1.0305,0,202.0,0.0,1.0,0.0,0.0,1.0,1,100.0,168.33,53.326,1,1.0,0,1.0,0,1.0,0,1.0,0,1.0
2442,'1',49.86,0.0,85.682,-18.685,1.035,0,202.0,0.0,1.0,0.0,0.0,1.0,1,100.0,168.33,48.665,1,1.0,0,1.0,0,1.0,0,1.0,0,1.0
2443,'1',76.34,0.0,85.682,-18.685,1.035,0,202.0,0.0,1.0,0.0,0.0,1.0,1,100.0,168.33,75.409,1,1.0,0,1.0,0,1.0,0,1.0,0,1.0
2449,'1',136.59,0.0,169.088,-35.226,1.029,0,380.82,0.0,1.0,0.0,0.0,1.0,1,100.0,317.35,134.767,1,1.0,0,1.0,0,1.0,0,1.0,0,1.0
2450,'1',115.76,0.0,100.634,-35.226,1.0245,0,380.82,0.0,1.0,0.0,0.0,1.0,1,100.0,317.35,113.719,1,1.0,0,1.0,0,1.0,0,1.0,0,1.0
2455,'1',53.99,0.0,67.086,-14.63,1.032,0,158.16,0.0,1.0,0.0,0.0,1.0,1,100.0,131.8,53.208,1,1.0,0,1.0,0,1.0,0,1.0,0,1.0
2456,'1',59.95,0.0,67.086,-14.63,1.0365,0,158.16,0.0,1.0,0.0,0.0,1.0,1,100.0,131.8,59.222,1,1.0,0,1.0,0,1.0,0,1.0,0,1.0
2459,'1',7.56,0.0,11.198,-2.442,1.04,0,26.4,0.0,1.0,0.0,0.0,1.0,1,100.0,22.0,7.414,1,1.0,0,1.0,0,1.0,0,1.0,0,1.0
2459,'2',4.68,0.0,11.198,-2.442,1.04,0,26.4,0.0,1.0,0.0,0.0,1.0,1,100.0,22.0,4.504,1,1.0,0,1.0,0,1.0,0,1.0,0,1.0
2459,'3',10.08,0.0,11.198,-2.442,1.04,0,26.4,0.0,1.0,0.0,0.0,1.0,1,100.0,22.0,9.955,1,1.0,0,1.0,0,1.0,0,1.0,0,1.0
2464,'1',28.12,0.0,49.212,-10.732,1.054,0,116.02,0.0,1.0,0.0,0.0,1.0,1,100.0,96.68,27.432,1,1.0,0,1.0,0,1.0,0,1.0,0,1.0
2465,'1',28.89,0.0,49.212,-10.732,1.054,0,116.02,0.0,1.0,0.0,0.0,1.0,1,100.0,96.68,28.207,1,1.0,0,1.0,0,1.0,0,1.0,0,1.0
2466,'1',31.46,0.0,49.212,-10.732,1.054,0,116.02,0.0,1.0,0.0,0.0,1.0,1,100.0,96.68,30.797,1,1.0,0,1.0,0,1.0,0,1.0,0,1.0
2467,'1',31.01,0.0,49.212,-10.732,1.054,0,116.02,0.0,1.0,0.0,0.0,1.0,1,100.0,96.68,30.344,1,1.0,0,1.0,0,1.0,0,1.0,0,1.0
2468,'1',33.57,0.0,49.212,-10.732,1.054,0,116.02,0.0,1.0,0.0,0.0,1.0,1,100.0,96.68,32.937,1,1.0,0,1.0,0,1.0,0,1.0,0,1.0
2469,'1',43.61,0.0,49.212,-10.732,1.054,0,116.02,0.0,1.0,0.0,0.0,1.0,1,100.0,96.68,43.072,1,1.0,0,1.0,0,1.0,0,1.0,0,1.0
2473,'1',12.65,0.0,38.76,-8.453,1.045,0,91.38,0.0,1.0,0.0,0.0,1.0,1,100.0,76.15,12.006,1,1.0,0,1.0,0,1.0,0,1.0,0,1.0
2473,'2',22.83,0.0,38.76,-8.453,1.045,0,91.38,0.0,1.0,0.0,0.0,1.0,1,100.0,76.15,22.291,1,1.0,0,1.0,0,1.0,0,1.0,0,1.0
2473,'3',36.43,0.0,38.76,-8.453,1.045,0,91.38,0.0,1.0,0.0,0.0,1.0,1,100.0,76.15,36.024,1,1.0,0,1.0,0,1.0,0,1.0,0,1.0
2473,'4',11.00,0.0,38.76,-8.453,1.045,0,91.38,0.0,1.0,0.0,0.0,1.0,1,100.0,76.15,10.342,1,1.0,0,1.0,0,1.0,0,1.0,0,1.0
2477,'1',10.98,0.0,19.342,-4.218,1.0425,0,45.6,0.0,1.0,0.0,0.0,1.0,1,100.0,38.0,10.706,1,1.0,0,1.0,0,1.0,0,1.0,0,1.0
2481,'1',61.09,0.0,36.253,-24.509,1.045,0,204.24,0.0,1.0,0.0,0.0,1.0,1,100.0,170.2,59.987,1,1.0,0,1.0,0,1.0,0,1.0,1,1.0
2486,'1',102.26,0.0,114.627,-24.997,1.0675,0,270.24,0.0,1.0,0.0,0.0,1.0,0,100.0,225.2,101.015,1,1.0,0,1.0,0,1.0,0,1.0,0,1.0
2487,'1',69.34,0.0,114.627,-24.997,1.0675,0,270.24,0.0,1.0,0.0,0.0,1.0,0,100.0,225.2,67.765,1,1.0,0,1.0,0,1.0,0,1.0,0,1.0
2488,'1',81.61,0.0,114.627,-24.997,1.0675,0,270.24,0.0,1.0,0.0,0.0,1.0,0,100.0,225.2,80.164,1,1.0,0,1.0,0,1.0,0,1.0,0,1.0
2493,'1',54.36,0.0,31.95,-21.6,1.0445,0,180.0,0.0,1.0,0.0,0.0,1.0,1,100.0,150.0,53.398,1,1.0,0,1.0,0,1.0,0,1.0,1,1.0
2499,'1',56.10,0.0,38.34,-25.92,1.04,0,216.0,0.0,1.0,0.0,0.0,1.0,1,100.0,180.0,54.851,1,1.0,0,1.0,0,1.0,0,1.0,1,1.0
2500,'1',2.33,0.0,1.917,-1.296,1.0405,0,10.8,0.0,1.0,0.0,0.0,1.0,1,100.0,9.0,2.266,1,1.0,0,1.0,0,1.0,0,1.0,1,1.0
2506,'1',79.41,0.0,82.153,-17.915,1.047,0,193.68,0.0,1.0,0.0,0.0,1.0,1,100.0,161.4,78.585,1,1.0,0,1.0,0,1.0,0,1.0,0,1.0
2507,'1',53.49,0.0,82.153,-17.915,1.047,0,193.68,0.0,1.0,0.0,0.0,1.0,1,100.0,161.4,52.405,1,1.0,0,1.0,0,1.0,0,1.0,0,1.0
2508,'1',52.92,0.0,82.153,-17.915,1.0515,0,193.68,0.0,1.0,0.0,0.0,1.0,1,100.0,161.4,51.825,1,1.0,0,1.0,0,1.0,0,1.0,0,1.0
2509,'1',61.75,0.0,82.153,-17.915,1.047,0,193.68,0.0,1.0,0.0,0.0,1.0,1,100.0,161.4,60.739,1,1.0,0,1.0,0,1.0,0,1.0,0,1.0
2510,'1',75.11,0.0,82.153,-17.915,1.047,0,193.68,0.0,1.0,0.0,0.0,1.0,1,100.0,161.4,74.24,1,1.0,0,1.0,0,1.0,0,1.0,0,1.0
2515,'1',101.50,0.0,104.973,-22.892,1.054,0,247.48,0.0,1.0,0.0,0.0,1.0,0,100.0,206.23,100.441,1,1.0,0,1.0,0,1.0,0,1.0,0,1.0
2516,'1',92.03,0.0,104.973,-22.892,1.054,0,247.48,0.0,1.0,0.0,0.0,1.0,0,100.0,206.23,90.875,1,1.0,0,1.0,0,1.0,0,1.0,0,1.0
2517,'1',97.49,0.0,104.973,-22.892,1.054,0,247.48,0.0,1.0,0.0,0.0,1.0,0,100.0,206.23,96.392,1,1.0,0,1.0,0,1.0,0,1.0,0,1.0
2521,'1',10.99,0.0,14.399,-9.734,1.054,0,81.12,0.0,1.0,0.0,0.0,1.0,1,100.0,67.6,10.419,1,1.0,0,1.0,0,1.0,0,1.0,1,1.0
2526,'1',51.34,0.0,78.895,-17.205,1.045,0,186.0,0.0,1.0,0.0,0.0,1.0,1,100.0,155.0,50.297,1,1.0,0,1.0,0,1.0,0,1.0,0,1.0
2527,'1',21.56,0.0,78.895,-17.205,1.045,0,186.0,0.0,1.0,0.0,0.0,1.0,1,100.0,155.0,20.217,1,1.0,0,1.0,0,1.0,0,1.0,0,1.0
2531,'1',3.66,0.0,0.0,0.0,1.04,0,36.0,0.0,1.0,0.0,0.0,1.0,1,100.0,30.0,3.39,1,1.0,0,1.0,0,1.0,0,1.0,0,1.0
2531,'2',0.56,0.0,0.0,0.0,1.04,0,1.68,0.0,1.0,0.0,0.0,1.0,1,100.0,1.4,0.549,1,1.0,0,1.0,0,1.0,0,1.0,0,1.0
2536,'1',25.08,0.0,30.031,-6.549,1.065,0,70.8,0.0,1.0,0.0,0.0,1.0,1,100.0,59.0,24.736,1,1.0,0,1.0,0,1.0,0,1.0,0,1.0
2537,'1',13.14,0.0,30.031,-6.549,1.065,0,70.8,0.0,1.0,0.0,0.0,1.0,1,100.0,59.0,12.681,1,1.0,0,1.0,0,1.0,0,1.0,0,1.0
2538,'1',18.16,0.0,30.031,-6.549,1.065,0,70.8,0.0,1.0,0.0,0.0,1.0,1,100.0,59.0,17.743,1,1.0,0,1.0,0,1.0,0,1.0,0,1.0
2539,'1',26.84,0.0,30.031,-6.549,1.065,0,70.8,0.0,1.0,0.0,0.0,1.0,1,100.0,59.0,26.511,1,1.0,0,1.0,0,1.0,0,1.0,0,1.0
2544,'1',68.15,0.0,81.364,-21.301,1.04,0,209.52,0.0,1.0,0.0,0.0,1.0,0,100.0,174.6,67.075,1,1.0,0,1.0,0,1.0,0,1.0,0,1.0
2545,'1',43.58,0.0,81.364,-21.301,1.04,0,209.52,0.0,1.0,0.0,0.0,1.0,0,100.0,174.6,42.259,1,1.0,0,1.0,0,1.0,0,1.0,0,1.0
2548,'1',6.60,0.0,14.201,-3.097,1.041,0,33.48,0.0,1.0,0.0,0.0,1.0,1,100.0,27.9,6.386,1,1.0,0,1.0,0,1.0,0,1.0,0,1.0
2549,'1',3.74,0.0,14.201,-3.097,1.04,0,33.48,0.0,1.0,0.0,0.0,1.0,1,100.0,27.9,3.501,1,1.0,0,1.0,0,1.0,0,1.0,0,1.0
2549,'2',13.32,0.0,14.201,-3.097,1.04,0,33.48,0.0,1.0,0.0,0.0,1.0,1,100.0,27.9,13.174,1,1.0,0,1.0,0,1.0,0,1.0,0,1.0
2549,'3',9.68,0.0,14.201,-3.097,1.04,0,33.48,0.0,1.0,0.0,0.0,1.0,1,100.0,27.9,9.499,1,1.0,0,1.0,0,1.0,0,1.0,0,1.0
2549,'4',11.68,0.0,14.201,-3.097,1.04,0,33.48,0.0,1.0,0.0,0.0,1.0,1,100.0,27.9,11.521,1,1.0,0,1.0,0,1.0,0,1.0,0,1.0
2549,'5',10.68,0.0,14.201,-3.097,1.04,0,33.48,0.0,1.0,0.0,0.0,1.0,1,100.0,27.9,10.511,1,1.0,0,1.0,0,1.0,0,1.0,0,1.0
2554,'1',47.58,0.0,67.137,-14.641,1.0585,0,158.28,0.0,1.0,0.0,0.0,1.0,1,100.0,131.9,46.727,1,1.0,0,1.0,0,1.0,0,1.0,0,1.0
2555,'1',66.02,0.0,67.137,-14.641,1.0585,0,158.28,0.0,1.0,0.0,0.0,1.0,1,100.0,131.9,65.353,1,1.0,0,1.0,0,1.0,0,1.0,0,1.0
2556,'1',28.84,0.0,67.137,-14.641,1.0585,0,158.28,0.0,1.0,0.0,0.0,1.0,1,100.0,131.9,27.798,1,1.0,0,1.0,0,1.0,0,1.0,0,1.0
2557,'1',33.75,0.0,67.137,-14.641,1.0585,0,158.28,0.0,1.0,0.0,0.0,1.0,1,100.0,131.9,32.76,1,1.0,0,1.0,0,1.0,0,1.0,0,1.0
2563,'1',549.47,0.0,447.12,-99.63,1.029,0,1458.0,0.0,1.0,0.0,0.0,1.0,0,100.0,1215.0,542.749,1,1.0,0,1.0,0,1.0,0,1.0,0,1.0
2564,'1',207.04,0.0,447.12,-99.63,1.029,0,1458.0,0.0,1.0,0.0,0.0,1.0,0,100.0,1215.0,196.854,1,1.0,0,1.0,0,1.0,0,1.0,0,1.0
2567,'1',25.10,0.0,36.648,-7.992,1.037,0,86.4,0.0,1.0,0.0,0.0,1.0,1,100.0,72.0,24.623,1,1.0,0,1.0,0,1.0,0,1.0,0,1.0
2567,'2',32.89,0.0,36.648,-7.992,1.037,0,86.4,0.0,1.0,0.0,0.0,1.0,1,100.0,72.0,32.496,1,1.0,0,1.0,0,1.0,0,1.0,0,1.0
2567,'3',9.23,0.0,36.648,-7.992,1.037,0,86.4,0.0,1.0,0.0,0.0,1.0,1,100.0,72.0,8.594,1,1.0,0,1.0,0,1.0,0,1.0,0,1.0
2567,'4',21.42,0.0,36.648,-7.992,1.037,0,86.4,0.0,1.0,0.0,0.0,1.0,1,100.0,72.0,20.906,1,1.0,0,1.0,0,1.0,0,1.0,0,1.0
2567,'5',31.40,0.0,36.648,-7.992,1.037,0,86.4,0.0,1.0,0.0,0.0,1.0,1,100.0,72.0,30.986,1,1.0,0,1.0,0,1.0,0,1.0,0,1.0
2567,'6',21.06,0.0,36.648,-7.992,1.037,0,86.4,0.0,1.0,0.0,0.0,1.0,1,100.0,72.0,20.543,1,1.0,0,1.0,0,1.0,0,1.0,0,1.0
2573,'1',126.03,0.0,59.214,-40.032,1.036,0,333.6,0.0,1.0,0.0,0.0,1.0,1,100.0,278.0,124.493,1,1.0,0,1.0,0,1.0,0,1.0,1,1.0
2578,'1',37.08,0.0,31.95,-21.6,1.04,0,180.0,0.0,1.0,0.0,0.0,1.0,1,100.0,150.0,35.937,1,1.0,0,1.0,0,1.0,0,1.0,1,1.0
2583,'1',164.21,0.0,165.527,-36.097,1.0475,0,390.24,0.0,1.0,0.0,0.0,1.0,0,100.0,325.2,162.58,1,1.0,0,1.0,0,1.0,0,1.0,0,1.0
2584,'1',69.02,0.0,165.527,-36.097,1.0475,0,390.24,0.0,1.0,0.0,0.0,1.0,0,100.0,325.2,66.433,1,1.0,0,1.0,0,1.0,0,1.0,0,1.0
2588,'1',58.49,0.0,49.523,-33.48,1.04,0,279.0,0.0,1.0,0.0,0.0,1.0,1,100.0,232.5,56.736,1,1.0,0,1.0,0,1.0,0,1.0,1,1.0
2591,'1',25.75,0.0,17.146,-11.592,1.043,0,96.6,0.0,1.0,0.0,0.0,1.0,1,100.0,80.5,25.199,1,1.0,0,1.0,0,1.0,0,1.0,1,1.0
2594,'1',30.44,0.0,16.955,-11.462,1.04,0,95.52,0.0,1.0,0.0,0.0,1.0,1,100.0,79.6,29.942,1,1.0,0,1.0,0,1.0,0,1.0,1,1.0
2598,'1',6.83,0.0,10.307,-2.248,1.04,0,24.3,0.0,1.0,0.0,0.0,1.0,1,100.0,20.25,6.698,1,1.0,0,1.0,0,1.0,0,1.0,0,1.0
2598,'2',4.32,0.0,10.307,-2.248,1.04,0,24.3,0.0,1.0,0.0,0.0,1.0,1,100.0,20.25,4.163,1,1.0,0,1.0,0,1.0,0,1.0,0,1.0
2604,'1',76.57,0.0,42.6,-28.8,1.048,0,240.0,0.0,1.0,0.0,0.0,1.0,1,100.0,200.0,75.326,1,1.0,0,1.0,0,1.0,0,1.0,1,1.0
2611,'1',114.63,0.0,199.426,-43.49,1.0045,0,470.16,0.0,1.0,0.0,0.0,1.0,0,100.0,391.8,111.827,1,1.0,0,1.0,0,1.0,0,1.0,0,1.0
2612,'1',190.97,0.0,199.426,-43.49,1.0045,0,470.16,0.0,1.0,0.0,0.0,1.0,0,100.0,391.8,188.945,1,1.0,0,1.0,0,1.0,0,1.0,0,1.0
2613,'1',104.14,0.0,199.426,-43.49,1.0045,0,470.16,0.0,1.0,0.0,0.0,1.0,0,100.0,391.8,101.235,1,1.0,0,1.0,0,1.0,0,1.0,0,1.0
2617,'1',2.57,0.0,8.448,-1.078,1.0405,0,26.4,0.0,1.0,0.0,0.0,1.0,1,100.0,22.0,2.376,1,1.0,0,1.0,0,1.0,0,1.0,0,1.0
2617,'2',6.64,0.0,8.448,-1.078,1.0405,0,26.4,0.0,1.0,0.0,0.0,1.0,1,100.0,22.0,6.487,1,1.0,0,1.0,0,1.0,0,1.0,0,1.0
2623,'1',232.02,0.0,307.56,-80.52,1.04,0,792.0,0.0,1.0,0.0,0.0,1.0,0,100.0,660.0,227.696,1,1.0,0,1.0,0,1.0,0,1.0,0,1.0
2624,'1',119.06,0.0,307.56,-80.52,1.04,0,792.0,0.0,1.0,0.0,0.0,1.0,0,100.0,660.0,113.593,1,1.0,0,1.0,0,1.0,0,1.0,0,1.0
2625,'1',181.84,0.0,307.56,-80.52,1.04,0,792.0,0.0,1.0,0.0,0.0,1.0,0,100.0,660.0,177.006,1,1.0,0,1.0,0,1.0,0,1.0,0,1.0
2630,'1',124.84,0.0,61.472,-41.558,1.0405,0,346.32,0.0,1.0,0.0,0.0,1.0,1,100.0,288.6,123.187,1,1.0,0,1.0,0,1.0,0,1.0,1,1.0
2635,'1',94.23,0.0,51.333,-34.704,1.058,0,289.2,0.0,1.0,0.0,0.0,1.0,1,100.0,241.0,92.743,1,1.0,0,1.0,0,1.0,0,1.0,1,1.0
2638,'1',7.74,0.0,12.524,-8.467,1.04,0,70.56,0.0,1.0,0.0,0.0,1.0,1,100.0,58.8,7.225,1,1.0,0,1.0,0,1.0,0,1.0,1,1.0
2644,'1',24.46,0.0,35.278,-23.85,1.0245,0,198.75,0.0,1.0,0.0,0.0,1.0,1,100.0,165.63,23.039,1,1.0,0,1.0,0,1.0,0,1.0,1,1.0
2645,'1',59.83,0.0,35.278,-23.85,1.0245,0,198.75,0.0,1.0,0.0,0.0,1.0,1,100.0,165.63,58.765,1,1.0,0,1.0,0,1.0,0,1.0,1,1.0
2646,'1',45.94,0.0,35.278,-23.85,1.0245,0,198.75,0.0,1.0,0.0,0.0,1.0,1,100.0,165.63,44.736,1,1.0,0,1.0,0,1.0,0,1.0,1,1.0
2647,'1',20.47,0.0,35.278,-23.85,1.04,0,198.75,0.0,1.0,0.0,0.0,1.0,1,100.0,165.63,19.005,1,1.0,0,1.0,0,1.0,0,1.0,1,1.0
2651,'1',39.62,0.0,80.541,-17.564,1.0405,0,189.88,0.0,1.0,0.0,0.0,1.0,1,100.0,158.23,38.418,1,1.0,0,1.0,0,1.0,0,1.0,0,1.0
2652,'1',67.66,0.0,80.541,-17.564,1.0405,0,189.88,0.0,1.0,0.0,0.0,1.0,1,100.0,158.23,66.741,1,1.0,0,1.0,0,1.0,0,1.0,0,1.0
2653,'1',25.93,0.0,80.541,-17.564,1.0405,0,189.88,0.0,1.0,0.0,0.0,1.0,1,100.0,158.23,24.597,1,1.0,0,1.0,0,1.0,0,1.0,0,1.0
2657,'1',51.43,0.0,26.945,-18.216,1.026,0,151.8,0.0,1.0,0.0,0.0,1.0,1,100.0,126.5,50.669,1,1.0,0,1.0,0,1.0,0,1.0,1,1.0
2662,'1',97.37,0.0,41.961,-28.368,1.0405,0,236.4,0.0,1.0,0.0,0.0,1.0,1,100.0,197.0,96.368,1,1.0,0,1.0,0,1.0,0,1.0,1,1.0
2665,'1',27.89,0.0,16.657,-11.261,1.0405,0,93.84,0.0,1.0,0.0,0.0,1.0,1,100.0,78.2,27.384,1,1.0,0,1.0,0,1.0,0,1.0,1,1.0
2669,'1',87.13,0.0,93.537,-20.398,1.0585,0,220.52,0.0,1.0,0.0,0.0,1.0,1,100.0,183.77,86.15,1,1.0,0,1.0,0,1.0,0,1.0,0,1.0
2670,'1',73.20,0.0,93.537,-20.398,1.0585,0,220.52,0.0,1.0,0.0,0.0,1.0,1,100.0,183.77,72.086,1,1.0,0,1.0,0,1.0,0,1.0,0,1.0
2671,'1',22.84,0.0,93.537,-20.398,1.0585,0,220.52,0.0,1.0,0.0,0.0,1.0,1,100.0,183.77,21.216,1,1.0,0,1.0,0,1.0,0,1.0,0,1.0
2677,'1',31.34,0.0,94.844,-20.683,1.0525,0,223.6,0.0,1.0,0.0,0.0,1.0,1,100.0,186.33,29.779,1,1.0,0,1.0,0,1.0,0,1.0,0,1.0
2678,'1',89.26,0.0,94.844,-20.683,1.0525,0,223.6,0.0,1.0,0.0,0.0,1.0,1,100.0,186.33,88.281,1,1.0,0,1.0,0,1.0,0,1.0,0,1.0
2679,'1',70.59,0.0,94.844,-20.683,1.0525,0,223.6,0.0,1.0,0.0,0.0,1.0,0,100.0,186.33,69.424,1,1.0,0,1.0,0,1.0,0,1.0,0,1.0
2683,'1',82.00,0.0,60.322,-40.781,1.03,0,339.84,0.0,1.0,0.0,0.0,1.0,1,100.0,283.2,79.964,1,1.0,0,1.0,0,1.0,0,1.0,1,1.0
2688,'1',99.94,0.0,43.239,-29.232,1.0045,0,243.6,0.0,1.0,0.0,0.0,1.0,1,100.0,203.0,98.9,1,1.0,0,1.0,0,1.0,0,1.0,1,1.0
2691,'1',5.38,0.0,21.887,-4.773,1.0385,0,51.6,0.0,1.0,0.0,0.0,1.0,1,100.0,43.0,5.001,1,1.0,0,1.0,0,1.0,0,1.0,0,1.0
2692,'1',21.70,0.0,21.887,-4.773,1.042,0,51.6,0.0,1.0,0.0,0.0,1.0,1,100.0,43.0,21.482,1,1.0,0,1.0,0,1.0,0,1.0,0,1.0
...
0 / END OF GENERATOR DATA BEGIN BRANCH DATA
1,10,'1',0.0087,0.04508,0.03012,161.0,161.0,161.0,0.0,0.0,0.0,0.0,1,1,17.47,1,1.0,0,1.0,0,1.0,0,1.0
1,300001,'1',0.0,0.0001,0.0,99999.0,99999.0,99999.0,0.0,0.0,0.0,0.0,1,1,0.0,1,1.0,0,1.0,0,1.0,0,1.0
1,303119,'1',0.01383,0.05237,0.0,109.8,109.8,109.8,0.0,0.0,0.0,0.0,1,1,0.0,1,1.0,0,1.0,0,1.0,0,1.0
2,5,'1',0.04168,0.15499,0.06378,172.6,172.6,172.6,0.0,0.0,0.0,0.0,1,1,43.76,1,1.0,0,1.0,0,1.0,0,1.0
2,2971,'1',0.0113,0.0609,0.01935,179.1,179.1,179.1,0.0,0.0,0.0,0.0,1,1,15.5,1,1.0,0,1.0,0,1.0,0,1.0
3,32,'1',0.02285,0.1258,0.02312,129.8,129.8,129.8,0.0,0.0,0.0,0.0,1,1,23.78,1,1.0,0,1.0,0,1.0,0,1.0
3,300003,'1',0.0,0.0001,0.0,99999.0,99999.0,99999.0,0.0,0.0,0.0,0.0,1,1,0.0,1,1.0,0,1.0,0,1.0,0,1.0
4,5,'1',0.00021,0.0011,0.0,99999.0,99999.0,99999.0,0.0,0.0,0.0,0.0,1,1,0.0,1,1.0,0,1.0,0,1.0,0,1.0
5,47,'1',0.01779,0.09175,0.1489,168.8,168.8,168.8,0.0,0.0,0.0,0.0,1,1,45.97,1,1.0,0,1.0,0,1.0,0,1.0
6,7,'1',0.01146,0.06161,0.01521,118.9,118.9,118.9,0.0,0.0,0.0,0.0,1,1,12.12,1,1.0,0,1.0,0,1.0,0,1.0
6,3839,'1',0.06146,0.23913,0.02814,132.4,132.4,132.4,0.0,0.0,0.0,0.0,1,1,37.25,1,1.0,0,1.0,0,1.0,0,1.0
6,300006,'1',0.0,0.0001,0.0,99999.0,99999.0,99999.0,0.0,0.0,0.0,0.0,1,1,0.0,1,1.0,0,1.0,0,1.0,0,1.0
7,3142,'1',0.01943,0.08611,0.03098,154.4,154.4,154.4,0.0,0.0,0.0,0.0,1,1,21.17,1,1.0,0,1.0,0,1.0,0,1.0
7,300007,'1',0.0,0.0001,0.0,99999.0,99999.0,99999.0,0.0,0.0,0.0,0.0,1,1,0.0,1,1.0,0,1.0,0,1.0,0,1.0
8,9,'1',0.04045,0.19503,0.02577,143.7,143.7,143.7,0.0,0.0,0.0,0.0,1,1,29.57,1,1.0,0,1.0,0,1.0,0,1.0
8,34,'1',0.03445,0.15102,0.02567,125.9,125.9,125.9,0.0,0.0,0.0,0.0,1,1,27.06,1,1.0,0,1.0,0,1.0,0,1.0
8,2798,'1',0.03757,0.171,0.015,165.0,165.0,165.0,0.0,0.0,0.0,0.0,1,1,20.45,1,1.0,0,1.0,0,1.0,0,1.0
9,300009,'1',0.0,0.0001,0.0,99999.0,99999.0,99999.0,0.0,0.0,0.0,0.0,1,1,0.0,1,1.0,0,1.0,0,1.0,0,1.0
10,11,'1',0.03459,0.13093,0.02825,179.5,179.5,179.5,0.0,0.0,0.0,0.0,1,1,27.43,1,1.0,0,1.0,0,1.0,0,1.0
12,14,'1',0.00024,0.00103,0.0,99999.0,99999.0,99999.0,0.0,0.0,0.0,0.0,1,1,0.0,1,1.0,0,1.0,0,1.0,0,1.0
12,15,'1',0.00028,0.00118,0.0,99999.0,99999.0,99999.0,0.0,0.0,0.0,0.0,1,1,0.0,1,1.0,0,1.0,0,1.0,0,1.0
13,11,'1',0.0115,0.05155,0.00995,186.6,186.6,186.6,0.0,0.0,0.0,0.0,1,1,9.83,1,1.0,0,1.0,0,1.0,0,1.0
13,25,'1',0.03053,0.12823,0.03996,170.2,170.2,170.2,0.0,0.0,0.0,0.0,1,1,30.42,1,1.0,0,1.0,0,1.0,0,1.0
13,300013,'1',0.0,0.0001,0.0,99999.0,99999.0,99999.0,0.0,0.0,0.0,0.0,1,1,0.0,1,1.0,0,1.0,0,1.0,0,1.0
15,2405,'1',0.00382,0.03136,0.07527,564.4,564.4,564.4,0.0,0.0,0.0,0.0,1,1,22.89,1,1.0,0,1.0,0,1.0,0,1.0
15,3118,'1',0.00577,0.05823,0.28363,602.8,602.8,602.8,0.0,0.0,0.0,0.0,1,1,56.33,1,1.0,0,1.0,0,1.0,0,1.0
15,300015,'1',0.0,0.0001,0.0,99999.0,99999.0,99999.0,0.0,0.0,0.0,0.0,1,1,0.0,1,1.0,0,1.0,0,1.0,0,1.0
16,18,'1',0.00029,0.00105,0.0,99999.0,99999.0,99999.0,0.0,0.0,0.0,0.0,1,1,0.0,1,1.0,0,1.0,0,1.0,0,1.0
16,19,'1',0.00021,0.00106,0.0,99999.0,99999.0,99999.0,0.0,0.0,0.0,0.0,1,1,0.0,1,1.0,0,1.0,0,1.0,0,1.0
17,70,'1',0.02482,0.12658,0.04798,148.2,148.2,148.2,0.0,0.0,0.0,0.0,1,1,35.14,1,1.0,0,1.0,0,1.0,0,1.0
19,3259,'1',0.01233,0.10016,0.25445,532.2,532.2,532.2,0.0,0.0,0.0,0.0,1,1,62.51,1,1.0,0,1.0,0,1.0,0,1.0
20,22,'1',0.00021,0.00114,0.0,99999.0,99999.0,99999.0,0.0,0.0,0.0,0.0,1,1,0.0,1,1.0,0,1.0,0,1.0,0,1.0
20,23,'1',0.00028,0.00106,0.0,99999.0,99999.0,99999.0,0.0,0.0,0.0,0.0,1,1,0.0,1,1.0,0,1.0,0,1.0,0,1.0
21,9,'1',0.0449,0.16501,0.01666,108.5,108.5,108.5,0.0,0.0,0.0,0.0,1,1,23.8,1,1.0,0,1.0,0,1.0,0,1.0
22,3615,'1',0.00793,0.06747,0.23868,597.9,597.9,597.9,0.0,0.0,0.0,0.0,1,1,59.03,1,1.0,0,1.0,0,1.0,0,1.0
24,32,'1',0.01064,0.03316,0.00869,147.4,147.4,147.4,0.0,0.0,0.0,0.0,1,1,7.56,1,1.0,0,1.0,0,1.0,0,1.0
25,24,'1',0.00921,0.03545,0.00947,146.1,146.1,146.1,0.0,0.0,0.0,0.0,1,1,8.16,1,1.0,0,1.0,0,1.0,0,1.0
25,43,'1',0.00594,0.0302,0.03786,175.1,175.1,175.1,0.0,0.0,0.0,0.0,1,1,13.78,1,1.0,0,1.0,0,1.0,0,1.0
26,2572,'1',0.0208,0.09668,0.02411,135.6,135.6,135.6,0.0,0.0,0.0,0.0,1,1,21.54,1,1.0,0,1.0,0,1.0,0,1.0
26,3467,'1',0.05134,0.25172,0.03633,160.0,160.0,160.0,0.0,0.0,0.0,0.0,1,1,41.26,1,1.0,0,1.0,0,1.0,0,1.0
26,300026,'1',0.0,0.0001,0.0,99999.0,99999.0,99999.0,0.0,0.0,0.0,0.0,1,1,0.0,1,1.0,0,1.0,0,1.0,0,1.0
27,30,'1',0.00029,0.00101,0.0,99999.0,99999.0,99999.0,0.0,0.0,0.0,0.0,1,1,0.0,1,1.0,0,1.0,0,1.0,0,1.0
27,2585,'1',0.00049,0.00859,1.20744,2730.0,2730.0,2730.0,0.0,0.0,0.0,0.0,1,1,40.28,1,1.0,0,1.0,0,1.0,0,1.0
27,3124,'1',0.001,0.01944,2.12114,2885.3,2885.3,2885.3,0.0,0.0,0.0,0.0,1,1,95.18,1,1.0,0,1.0,0,1.0,0,1.0
27,302641,'1',0.00115,0.02219,0.0,2643.7,2643.7,2643.7,0.0,0.0,0.0,0.0,1,1,0.0,1,1.0,0,1.0,0,1.0,0,1.0
28,31,'1',0.0003,0.00103,0.0,99999.0,99999.0,99999.0,0.0,0.0,0.0,0.0,1,1,0.0,1,1.0,0,1.0,0,1.0,0,1.0
29,3557,'1',0.00452,0.02384,0.01438,170.8,170.8,170.8,0.0,0.0,0.0,0.0,1,1,8.45,1,1.0,0,1.0,0,1.0,0,1.0
30,300030,'1',0.0,0.0001,0.0,99999.0,99999.0,99999.0,0.0,0.0,0.0,0.0,1,1,0.0,1,1.0,0,1.0,0,1.0,0,1.0
31,65,'1',0.00329,0.03121,0.15293,513.4,513.4,513.4,0.0,0.0,0.0,0.0,1,1,30.96,1,1.0,0,1.0,0,1.0,0,1.0
31,2574,'1',0.00652,0.0629,0.18163,513.0,513.0,513.0,0.0,0.0,0.0,0.0,1,1,44.92,1,1.0,0,1.0,0,1.0,0,1.0
31,3567,'1',0.00127,0.01143,0.03245,651.5,651.5,651.5,0.0,0.0,0.0,0.0,1,1,8.4,1,1.0,0,1.0,0,1.0,0,1.0
31,3567,'2',0.00127,0.01143,0.03245,651.5,651.5,651.5,0.0,0.0,0.0,0.0,1,1,8.4,1,1.0,0,1.0,0,1.0,0,1.0
32,33,'1',0.00021,0.00116,0.0,99999.0,99999.0,99999.0,0.0,0.0,0.0,0.0,1,1,0.0,1,1.0,0,1.0,0,1.0,0,1.0
32,2282,'1',0.00716,0.03527,0.01736,178.4,178.4,178.4,0.0,0.0,0.0,0.0,1,1,11.3,1,1.0,0,1.0,0,1.0,0,1.0
32,300003,'1',0.02285,0.1258,0.0,129.8,129.8,129.8,0.0,0.0,0.0,0.0,1,1,0.0,1,1.0,0,1.0,0,1.0,0,1.0
32,300032,'1',0.0,0.0001,0.0,99999.0,99999.0,99999.0,0.0,0.0,0.0,0.0,1,1,0.0,1,1.0,0,1.0,0,1.0,0,1.0
33,300032,'1',0.00021,0.00116,0.0,99999.0,99999.0,99999.0,0.0,0.0,0.0,0.0,1,1,0.0,1,1.0,0,1.0,0,1.0,0,1.0
33,300033,'1',0.0,0.0001,0.0,99999.0,99999.0,99999.0,0.0,0.0,0.0,0.0,1,1,0.0,1,1.0,0,1.0,0,1.0,0,1.0
34,56,'1',0.03264,0.16102,0.02997,134.9,134.9,134.9,0.0,0.0,0.0,0.0,1,1,32.01,1,1.0,0,1.0,0,1.0,0,1.0
34,300034,'1',0.0,0.0001,0.0,99999.0,99999.0,99999.0,0.0,0.0,0.0,0.0,1,1,0.0,1,1.0,0,1.0,0,1.0,0,1.0
35,36,'1',0.00024,0.00114,0.0,99999.0,99999.0,99999.0,0.0,0.0,0.0,0.0,1,1,0.0,1,1.0,0,1.0,0,1.0,0,1.0
35,62,'1',0.01883,0.10742,0.02725,115.3,115.3,115.3,0.0,0.0,0.0,0.0,1,1,23.7,1,1.0,0,1.0,0,1.0,0,1.0
35,300035,'1',0.0,0.0001,0.0,99999.0,99999.0,99999.0,0.0,0.0,0.0,0.0,1,1,0.0,1,1.0,0,1.0,0,1.0,0,1.0
36,300035,'1',0.00024,0.00114,0.0,99999.0,99999.0,99999.0,0.0,0.0,0.0,0.0,1,1,0.0,1,1.0,0,1.0,0,1.0,0,1.0
36,300036,'1',0.0,0.0001,0.0,99999.0,99999.0,99999.0,0.0,0.0,0.0,0.0,1,1,0.0,1,1.0,0,1.0,0,1.0,0,1.0
37,39,'1',0.00025,0.00118,0.0,99999.0,99999.0,99999.0,0.0,0.0,0.0,0.0,1,1,0.0,1,1.0,0,1.0,0,1.0,0,1.0
37,2975,'1',0.00926,0.08957,0.19243,584.8,584.8,584.8,0.0,0.0,0.0,0.0,1,1,56.73,1,1.0,0,1.0,0,1.0,0,1.0
38,35,'1',0.01179,0.04912,0.01005,139.0,139.0,139.0,0.0,0.0,0.0,0.0,1,1,9.92,1,1.0,0,1.0,0,1.0,0,1.0
40,54,'1',0.00717,0.03214,0.01168,183.9,183.9,183.9,0.0,0.0,0.0,0.0,1,1,8.53,1,1.0,0,1.0,0,1.0,0,1.0
41,24,'1',0.00554,0.0269,0.01549,152.7,152.7,152.7,0.0,0.0,0.0,0.0,1,1,8.47,1,1.0,0,1.0,0,1.0,0,1.0
42,40,'1',0.00522,0.01499,0.00686,198.7,198.7,198.7,0.0,0.0,0.0,0.0,1,1,4.77,1,1.0,0,1.0,0,1.0,0,1.0
42,2282,'1',0.01068,0.05861,0.01552,200.1,200.1,200.1,0.0,0.0,0.0,0.0,1,1,12.39,1,1.0,0,1.0,0,1.0,0,1.0
42,300042,'1',0.0,0.0001,0.0,99999.0,99999.0,99999.0,0.0,0.0,0.0,0.0,1,1,0.0,1,1.0,0,1.0,0,1.0,0,1.0
43,41,'1',0.00246,0.01272,0.00586,168.0,168.0,168.0,0.0,0.0,0.0,0.0,1,1,3.95,1,1.0,0,1.0,0,1.0,0,1.0
43,3557,'1',0.00614,0.03023,0.00712,164.6,164.6,164.6,0.0,0.0,0.0,0.0,1,1,6.44,1,1.0,0,1.0,0,1.0,0,1.0
44,29,'1',0.00738,0.02468,0.00717,123.9,123.9,123.9,0.0,0.0,0.0,0.0,1,1,5.84,1,1.0,0,1.0,0,1.0,0,1.0
44,45,'1',0.0055,0.0265,0.0033,145.5,145.5,145.5,0.0,0.0,0.0,0.0,1,1,4.26,1,1.0,0,1.0,0,1.0,0,1.0
45,2282,'1',0.0079,0.04148,0.00396,162.4,162.4,162.4,0.0,0.0,0.0,0.0,1,1,6.0,1,1.0,0,1.0,0,1.0,0,1.0
46,38,'1',0.02563,0.14224,0.01306,169.3,169.3,169.3,0.0,0.0,0.0,0.0,1,1,20.09,1,1.0,0,1.0,0,1.0,0,1.0
47,300047,'1',0.0,0.0001,0.0,99999.0,99999.0,99999.0,0.0,0.0,0.0,0.0,1,1,0.0,1,1.0,0,1.0,0,1.0,0,1.0
48,47,'1',0.00865,0.03468,0.02152,166.3,166.3,166.3,0.0,0.0,0.0,0.0,1,1,12.36,1,1.0,0,1.0,0,1.0,0,1.0
48,71,'1',0.03201,0.12189,0.05261,176.6,176.6,176.6,0.0,0.0,0.0,0.0,1,1,38.11,1,1.0,0,1.0,0,1.0,0,1.0
49,50,'1',0.00022,0.00108,0.0,99999.0,99999.0,99999.0,0.0,0.0,0.0,0.0,1,1,0.0,1,1.0,0,1.0,0,1.0,0,1.0
49,300049,'1',0.0,0.0001,0.0,99999.0,99999.0,99999.0,0.0,0.0,0.0,0.0,1,1,0.0,1,1.0,0,1.0,0,1.0,0,1.0
50,86,'1',0.0328,0.16516,0.09333,116.2,116.2,116.2,0.0,0.0,0.0,0.0,1,1,55.74,1,1.0,0,1.0,0,1.0,0,1.0
50,300050,'1',0.0,0.0001,0.0,99999.0,99999.0,99999.0,0.0,0.0,0.0,0.0,1,1,0.0,1,1.0,0,1.0,0,1.0,0,1.0
51,59,'1',0.01464,0.04673,0.00744,114.8,114.8,114.8,0.0,0.0,0.0,0.0,1,1,8.66,1,1.0,0,1.0,0,1.0,0,1.0
51,300051,'1',0.0,0.0001,0.0,99999.0,99999.0,99999.0,0.0,0.0,0.0,0.0,1,1,0.0,1,1.0,0,1.0,0,1.0,0,1.0
52,53,'1',0.00021,0.00103,0.0,99999.0,99999.0,99999.0,0.0,0.0,0.0,0.0,1,1,0.0,1,1.0,0,1.0,0,1.0,0,1.0
52,300052,'1',0.0,0.0001,0.0,99999.0,99999.0,99999.0,0.0,0.0,0.0,0.0,1,1,0.0,1,1.0,0,1.0,0,1.0,0,1.0
53,54,'1',0.00707,0.03381,0.01158,147.3,147.3,147.3,0.0,0.0,0.0,0.0,1,1,8.94,1,1.0,0,1.0,0,1.0,0,1.0
53,59,'1',0.00623,0.0242,0.00374,121.3,121.3,121.3,0.0,0.0,0.0,0.0,1,1,4.24,1,1.0,0,1.0,0,1.0,0,1.0
54,51,'1',0.01384,0.04606,0.00524,145.7,145.7,145.7,0.0,0.0,0.0,0.0,1,1,6.23,1,1.0,0,1.0,0,1.0,0,1.0
54,55,'1',0.00027,0.00106,0.0,99999.0,99999.0,99999.0,0.0,0.0,0.0,0.0,1,1,0.0,1,1.0,0,1.0,0,1.0,0,1.0
56,46,'1',0.04103,0.16139,0.02102,159.3,159.3,159.3,0.0,0.0,0.0,0.0,1,1,27.15,1,1.0,0,1.0,0,1.0,0,1.0
56,57,'1',0.00022,0.00118,0.0,99999.0,99999.0,99999.0,0.0,0.0,0.0,0.0,1,1,0.0,1,1.0,0,1.0,0,1.0,0,1.0
56,96,'1',0.01994,0.09722,0.00985,136.4,136.4,136.4,0.0,0.0,0.0,0.0,1,1,14.72,1,1.0,0,1.0,0,1.0,0,1.0
56,300034,'1',0.03264,0.16102,0.0,134.9,134.9,134.9,0.0,0.0,0.0,0.0,1,1,0.0,1,1.0,0,1.0,0,1.0,0,1.0
58,64,'1',0.015,0.07401,0.00725,134.0,134.0,134.0,0.0,0.0,0.0,0.0,1,1,10.29,1,1.0,0,1.0,0,1.0,0,1.0
59,58,'1',0.00557,0.02601,0.00571,109.3,109.3,109.3,0.0,0.0,0.0,0.0,1,1,5.56,1,1.0,0,1.0,0,1.0,0,1.0
59,300051,'1',0.01464,0.04673,0.0,114.8,114.8,114.8,0.0,0.0,0.0,0.0,1,1,0.0,1,1.0,0,1.0,0,1.0,0,1.0
60,61,'1',0.0002,0.00106,0.0,99999.0,99999.0,99999.0,0.0,0.0,0.0,0.0,1,1,0.0,1,1.0,0,1.0,0,1.0,0,1.0
60,67,'1',0.00441,0.02151,0.01126,144.1,144.1,144.1,0.0,0.0,0.0,0.0,1,1,6.17,1,1.0,0,1.0,0,1.0,0,1.0
60,77,'1',0.00675,0.04224,0.01573,169.1,169.1,169.1,0.0,0.0,0.0,0.0,1,1,11.48,1,1.0,0,1.0,0,1.0,0,1.0
62,47,'1',0.0085,0.05417,0.06179,188.6,188.6,188.6,0.0,0.0,0.0,0.0,1,1,27.69,1,1.0,0,1.0,0,1.0,0,1.0
62,85,'1',0.01218,0.06348,0.01115,166.7,166.7,166.7,0.0,0.0,0.0,0.0,1,1,11.86,1,1.0,0,1.0,0,1.0,0,1.0
62,300035,'1',0.01883,0.10742,0.0,115.3,115.3,115.3,0.0,0.0,0.0,0.0,1,1,0.0,1,1.0,0,1.0,0,1.0,0,1.0
63,65,'1',0.0003,0.00111,0.0,99999.0,99999.0,99999.0,0.0,0.0,0.0,0.0,1,1,0.0,1,1.0,0,1.0,0,1.0,0,1.0
63,66,'1',0.0003,0.00116,0.0,99999.0,99999.0,99999.0,0.0,0.0,0.0,0.0,1,1,0.0,1,1.0,0,1.0,0,1.0,0,1.0
64,53,'1',0.00517,0.02427,0.00753,154.1,154.1,154.1,0.0,0.0,0.0,0.0,1,1,5.89,1,1.0,0,1.0,0,1.0,0,1.0
64,59,'1',0.00458,0.0236,0.00997,156.3,156.3,156.3,0.0,0.0,0.0,0.0,1,1,7.04,1,1.0,0,1.0,0,1.0,0,1.0
64,67,'1',0.00668,0.0258,0.00494,138.5,138.5,138.5,0.0,0.0,0.0,0.0,1,1,5.15,1,1.0,0,1.0,0,1.0,0,1.0
68,69,'1',0.00026,0.00104,0.0,99999.0,99999.0,99999.0,0.0,0.0,0.0,0.0,1,1,0.0,1,1.0,0,1.0,0,1.0,0,1.0
68,3394,'1',0.00964,0.03811,0.00673,120.4,120.4,120.4,0.0,0.0,0.0,0.0,1,1,6.83,1,1.0,0,1.0,0,1.0,0,1.0
69,300069,'1',0.0,0.0001,0.0,99999.0,99999.0,99999.0,0.0,0.0,0.0,0.0,1,1,0.0,1,1.0,0,1.0,0,1.0,0,1.0
70,68,'1',0.00842,0.04011,0.02742,161.6,161.6,161.6,0.0,0.0,0.0,0.0,1,1,15.09,1,1.0,0,1.0,0,1.0,0,1.0
70,2713,'1',0.01477,0.0596,0.01854,162.4,162.4,162.4,0.0,0.0,0.0,0.0,1,1,14.27,1,1.0,0,1.0,0,1.0,0,1.0
71,300073,'1',0.0162,0.0528,0.0,182.0,182.0,182.0,0.0,0.0,0.0,0.0,1,1,0.0,1,1.0,0,1.0,0,1.0,0,1.0
72,74,'1',0.00023,0.00109,0.0,99999.0,99999.0,99999.0,0.0,0.0,0.0,0.0,1,1,0.0,1,1.0,0,1.0,0,1.0,0,1.0
72,75,'1',0.00027,0.00118,0.0,99999.0,99999.0,99999.0,0.0,0.0,0.0,0.0,1,1,0.0,1,1.0,0,1.0,0,1.0,0,1.0
73,71,'1',0.0162,0.0528,0.0087,182.0,182.0,182.0,0.0,0.0,0.0,0.0,1,1,9.57,1,1.0,0,1.0,0,1.0,0,1.0
73,300073,'1',0.0,0.0001,0.0,99999.0,99999.0,99999.0,0.0,0.0,0.0,0.0,1,1,0.0,1,1.0,0,1.0,0,1.0,0,1.0
74,300074,'1',0.0,0.0001,0.0,99999.0,99999.0,99999.0,0.0,0.0,0.0,0.0,1,1,0.0,1,1.0,0,1.0,0,1.0,0,1.0
75,3713,'1',0.00519,0.04788,0.20757,615.4,615.4,615.4,0.0,0.0,0.0,0.0,1,1,40.71,1,1.0,0,1.0,0,1.0,0,1.0
76,58,'1',0.01303,0.04777,0.02234,147.7,147.7,147.7,0.0,0.0,0.0,0.0,1,1,13.71,1,1.0,0,1.0,0,1.0,0,1.0
76,77,'1',0.01118,0.05743,0.0095,160.5,160.5,160.5,0.0,0.0,0.0,0.0,1,1,10.87,1,1.0,0,1.0,0,1.0,0,1.0
77,2282,'1',0.01741,0.07702,0.0321,199.3,199.3,199.3,0.0,0.0,0.0,0.0,1,1,21.95,1,1.0,0,1.0,0,1.0,0,1.0
78,68,'1',0.03304,0.12753,0.01506,148.5,148.5,148.5,0.0,0.0,0.0,0.0,1,1,18.88,1,1.0,0,1.0,0,1.0,0,1.0
78,7121,'1',0.03285,0.1673,0.03843,141.0,141.0,141.0,0.0,0.0,0.0,0.0,1,1,34.55,1,1.0,0,1.0,0,1.0,0,1.0
79,81,'1',0.00029,0.00113,0.0,99999.0,99999.0,99999.0,0.0,0.0,0.0,0.0,1,1,0.0,1,1.0,0,1.0,0,1.0,0,1.0
79,82,'1',0.00029,0.00119,0.0,99999.0,99999.0,99999.0,0.0,0.0,0.0,0.0,1,1,0.0,1,1.0,0,1.0,0,1.0,0,1.0
79,300079,'1',0.0,0.0001,0.0,99999.0,99999.0,99999.0,0.0,0.0,0.0,0.0,1,1,0.0,1,1.0,0,1.0,0,1.0,0,1.0
...